sim-profile: SimpleScalar/PISA Tool Set version 3.0 of August, 2003.
Copyright (c) 1994-2003 by Todd M. Austin, Ph.D. and SimpleScalar, LLC.
All Rights Reserved. This version of SimpleScalar is licensed for academic
non-commercial use.  No portion of this work may be used by any commercial
entity, or for any commercial purpose, without the prior written permission
of SimpleScalar, LLC (info@simplescalar.com).

sim: command line: /home/sudiptac/sudiptac/Work/simplesim-3.0/sim-profile -pcstat sim_num_insn mergesort 

sim: simulation started @ Sat May  9 10:59:49 2009, options follow:

sim-profile: This simulator implements a functional simulator with
profiling support.  Run with the `-h' flag to see profiling options
available.

# -config                     # load configuration from a file
# -dumpconfig                 # dump configuration to a file
# -h                    false # print help message    
# -v                    false # verbose operation     
# -d                    false # enable debug message  
# -i                    false # start in Dlite debugger
-seed                       1 # random number generator seed (0 for timer seed)
# -q                    false # initialize and terminate immediately
# -chkpt               <null> # restore EIO trace execution from <fname>
# -redir:sim           <null> # redirect simulator output to file (non-interactive only)
# -redir:prog          <null> # redirect simulated program output to file
-nice                       0 # simulator scheduling priority
-max:inst                   0 # maximum number of inst's to execute
-all                    false # enable all profile options
-iclass                 false # enable instruction class profiling
-iprof                  false # enable instruction profiling
-brprof                 false # enable branch instruction profiling
-amprof                 false # enable address mode profiling
-segprof                false # enable load/store address segment profiling
-tsymprof               false # enable text symbol profiling
-taddrprof              false # enable text address profiling
-dsymprof               false # enable data symbol profiling
-internal               false # include compiler-internal symbols during symbol profiling
# -pcstat        sim_num_insn # profile stat(s) against text addr's (mult uses ok)

sim: ** starting functional simulation **

sim: ** simulation statistics **
sim_num_insn                1182215 # total number of instructions executed
sim_num_refs                 343746 # total number of loads and stores executed
sim_elapsed_time                  1 # total simulation time in seconds
sim_inst_rate          1182215.0000 # simulation speed (in insts/sec)

sim_num_insn_by_pc     # total number of instructions executed (by text address)
sim_num_insn_by_pc.count = 1310
sim_num_insn_by_pc.total = 1182214
sim_num_insn_by_pc.imin = 0x400140
sim_num_insn_by_pc.imax = 0x406750
sim_num_insn_by_pc.average = 902.4534
sim_num_insn_by_pc.std_dev = 2344.7338
sim_num_insn_by_pc.overflows = 0
# pdf == prob dist fn, cdf == cumulative dist fn
#          index      count    pdf 
sim_num_insn_by_pc.start_dist
0x400140 1 0.00
0x400148 1 0.00
0x400150 1 0.00
0x400158 1 0.00
0x400160 1 0.00
0x400168 1 0.00
0x400170 1 0.00
0x400178 1 0.00
0x400180 1 0.00
0x400188 1 0.00
0x400190 1 0.00
0x400198 1 0.00
0x4001a0 1 0.00
0x4001a8 1 0.00
0x4001b0 1 0.00
0x4001b8 1 0.00
0x4001c0 1 0.00
0x4001c8 1 0.00
0x4001d0 1 0.00
0x4001d8 1 0.00
0x4001e0 1 0.00
0x4001f0 2053 0.17
0x4001f8 2053 0.17
0x400200 2053 0.17
0x400208 2053 0.17
0x400210 2053 0.17
0x400218 2053 0.17
0x400220 2053 0.17
0x400228 2053 0.17
0x400230 2053 0.17
0x400238 2053 0.17
0x400240 2053 0.17
0x400248 32 0.00
0x400250 32 0.00
0x400258 32 0.00
0x400260 32 0.00
0x400268 32 0.00
0x400270 16 0.00
0x400278 16 0.00
0x400280 16 0.00
0x400288 128 0.01
0x400290 128 0.01
0x400298 128 0.01
0x4002a0 128 0.01
0x4002a8 128 0.01
0x4002b0 128 0.01
0x4002b8 128 0.01
0x4002c0 128 0.01
0x4002c8 128 0.01
0x4002d0 16 0.00
0x4002d8 16 0.00
0x4002e0 16 0.00
0x4002e8 16 0.00
0x4002f0 128 0.01
0x4002f8 128 0.01
0x400300 128 0.01
0x400308 128 0.01
0x400310 128 0.01
0x400318 128 0.01
0x400320 128 0.01
0x400328 128 0.01
0x400330 128 0.01
0x400338 16 0.00
0x400340 16 0.00
0x400348 16 0.00
0x400350 128 0.01
0x400358 128 0.01
0x400360 128 0.01
0x400368 128 0.01
0x400370 128 0.01
0x400378 128 0.01
0x400380 128 0.01
0x400388 128 0.01
0x400390 128 0.01
0x400398 16 0.00
0x4003a0 16 0.00
0x4003a8 16 0.00
0x4003b0 16 0.00
0x4003b8 128 0.01
0x4003c0 128 0.01
0x4003c8 128 0.01
0x4003d0 128 0.01
0x4003d8 128 0.01
0x4003e0 128 0.01
0x4003e8 128 0.01
0x4003f0 128 0.01
0x4003f8 128 0.01
0x400400 16 0.00
0x400408 2021 0.17
0x400410 2021 0.17
0x400418 16128 1.36
0x400420 16128 1.36
0x400428 16128 1.36
0x400430 16128 1.36
0x400438 16128 1.36
0x400440 16128 1.36
0x400448 16128 1.36
0x400450 16128 1.36
0x400458 16128 1.36
0x400460 16128 1.36
0x400468 16128 1.36
0x400470 2053 0.17
0x400478 2053 0.17
0x400480 4116 0.35
0x400488 4116 0.35
0x400490 4116 0.35
0x400498 4116 0.35
0x4004a0 4116 0.35
0x4004a8 4116 0.35
0x4004b0 4116 0.35
0x4004b8 4116 0.35
0x4004c0 4116 0.35
0x4004c8 4116 0.35
0x4004d0 4116 0.35
0x4004d8 6149 0.52
0x4004e0 6149 0.52
0x4004e8 6149 0.52
0x4004f0 6149 0.52
0x4004f8 6149 0.52
0x400500 6149 0.52
0x400508 6149 0.52
0x400510 6149 0.52
0x400518 6149 0.52
0x400520 6149 0.52
0x400528 6149 0.52
0x400530 2038 0.17
0x400538 2038 0.17
0x400540 2038 0.17
0x400548 2038 0.17
0x400550 2038 0.17
0x400558 2038 0.17
0x400560 2038 0.17
0x400568 2038 0.17
0x400570 2038 0.17
0x400578 2038 0.17
0x400580 4116 0.35
0x400588 4096 0.35
0x400590 4096 0.35
0x400598 4096 0.35
0x4005a0 4096 0.35
0x4005a8 4096 0.35
0x4005b0 4096 0.35
0x4005b8 4096 0.35
0x4005c0 4096 0.35
0x4005c8 4096 0.35
0x4005d0 4096 0.35
0x4005d8 4096 0.35
0x4005e0 4096 0.35
0x4005e8 4096 0.35
0x4005f0 4096 0.35
0x4005f8 4096 0.35
0x400600 4096 0.35
0x400608 4096 0.35
0x400610 4096 0.35
0x400618 4096 0.35
0x400620 4096 0.35
0x400628 4096 0.35
0x400630 4096 0.35
0x400638 4096 0.35
0x400640 4096 0.35
0x400648 6144 0.52
0x400650 6144 0.52
0x400658 6144 0.52
0x400660 6144 0.52
0x400668 6144 0.52
0x400670 6144 0.52
0x400678 6144 0.52
0x400680 6144 0.52
0x400688 6144 0.52
0x400690 6144 0.52
0x400698 10 0.00
0x4006a0 6144 0.52
0x4006a8 6144 0.52
0x4006b0 6144 0.52
0x4006b8 6144 0.52
0x4006c0 6144 0.52
0x4006c8 6144 0.52
0x4006d0 2048 0.17
0x4006d8 2048 0.17
0x4006e0 2048 0.17
0x4006e8 2048 0.17
0x4006f0 2048 0.17
0x4006f8 2048 0.17
0x400700 2048 0.17
0x400708 2048 0.17
0x400710 2048 0.17
0x400718 2048 0.17
0x400720 4096 0.35
0x400728 4096 0.35
0x400730 1 0.00
0x400738 1 0.00
0x400740 1 0.00
0x400748 1 0.00
0x400750 1 0.00
0x400758 1 0.00
0x400760 1 0.00
0x400768 1 0.00
0x400770 1 0.00
0x400778 1 0.00
0x400780 1 0.00
0x400788 1 0.00
0x400790 1 0.00
0x400798 1 0.00
0x4007a0 1 0.00
0x4007a8 1 0.00
0x4007b0 1 0.00
0x4007b8 1 0.00
0x4007c0 1 0.00
0x4007c8 16 0.00
0x4007d0 16 0.00
0x4007d8 16 0.00
0x4007e0 256 0.02
0x4007e8 256 0.02
0x4007f0 256 0.02
0x4007f8 256 0.02
0x400800 256 0.02
0x400808 256 0.02
0x400810 256 0.02
0x400818 256 0.02
0x400820 256 0.02
0x400828 16 0.00
0x400830 16 0.00
0x400838 16 0.00
0x400840 112 0.01
0x400848 112 0.01
0x400850 2032 0.17
0x400858 2032 0.17
0x400860 2032 0.17
0x400868 2032 0.17
0x400870 2032 0.17
0x400878 2032 0.17
0x400880 2032 0.17
0x400888 2032 0.17
0x400890 2032 0.17
0x400898 2032 0.17
0x4008a0 2032 0.17
0x4008a8 2032 0.17
0x4008b0 2032 0.17
0x4008b8 2032 0.17
0x4008c0 2032 0.17
0x4008c8 2032 0.17
0x4008d0 2032 0.17
0x4008d8 2032 0.17
0x4008e0 2032 0.17
0x4008e8 2032 0.17
0x4008f0 7168 0.61
0x4008f8 7168 0.61
0x400900 7168 0.61
0x400908 7168 0.61
0x400910 7168 0.61
0x400918 7168 0.61
0x400920 7168 0.61
0x400928 7168 0.61
0x400930 7168 0.61
0x400938 7168 0.61
0x400958 7168 0.61
0x400960 7168 0.61
0x400968 7168 0.61
0x400970 7168 0.61
0x400978 2032 0.17
0x400980 2032 0.17
0x4009e8 2032 0.17
0x4009f0 2032 0.17
0x4009f8 2032 0.17
0x400a00 2032 0.17
0x400a08 2032 0.17
0x400a10 2032 0.17
0x400a18 7168 0.61
0x400a20 7168 0.61
0x400a28 7168 0.61
0x400a30 7168 0.61
0x400a38 7168 0.61
0x400a40 7168 0.61
0x400a48 7168 0.61
0x400a50 2032 0.17
0x400a58 2032 0.17
0x400a60 2032 0.17
0x400a68 2032 0.17
0x400a70 2032 0.17
0x400a78 2032 0.17
0x400a80 14336 1.21
0x400a88 14336 1.21
0x400a90 14336 1.21
0x400a98 14336 1.21
0x400aa0 14336 1.21
0x400aa8 14336 1.21
0x400ab0 14336 1.21
0x400ab8 2032 0.17
0x400ac0 2032 0.17
0x400ac8 2032 0.17
0x400ad0 2032 0.17
0x400ad8 112 0.01
0x400ae0 112 0.01
0x400ae8 112 0.01
0x400af0 16 0.00
0x400af8 16 0.00
0x400b00 256 0.02
0x400b08 256 0.02
0x400b10 256 0.02
0x400b18 256 0.02
0x400b20 256 0.02
0x400b28 256 0.02
0x400b30 256 0.02
0x400b38 256 0.02
0x400b40 256 0.02
0x400b48 16 0.00
0x400b50 16 0.00
0x400b58 16 0.00
0x400b60 16 0.00
0x400b68 1 0.00
0x400b70 1 0.00
0x400b78 1 0.00
0x400b80 1 0.00
0x400b88 1 0.00
0x400b90 1 0.00
0x400b98 4 0.00
0x400ba0 4 0.00
0x400ba8 4 0.00
0x400bb0 4 0.00
0x400bb8 4 0.00
0x400bc0 4 0.00
0x400bc8 4 0.00
0x400bd0 1 0.00
0x400bd8 1 0.00
0x400be0 1 0.00
0x400be8 1 0.00
0x400bf0 1 0.00
0x400bf8 1 0.00
0x400c00 1 0.00
0x400c08 1 0.00
0x400c10 1 0.00
0x400c18 1 0.00
0x400c20 1 0.00
0x400c28 1 0.00
0x400c30 1 0.00
0x400c38 1 0.00
0x400c40 1 0.00
0x400c48 1 0.00
0x400c50 1 0.00
0x400c58 1 0.00
0x400c60 1 0.00
0x400c68 1 0.00
0x400c70 1 0.00
0x400c78 2 0.00
0x400c80 2 0.00
0x400c88 2 0.00
0x400c90 2 0.00
0x400c98 2 0.00
0x400ca0 2 0.00
0x400ca8 5 0.00
0x400cb0 5 0.00
0x400cb8 5 0.00
0x400cc0 5 0.00
0x400cc8 5 0.00
0x400cd0 5 0.00
0x400cd8 5 0.00
0x400ce0 20 0.00
0x400ce8 20 0.00
0x400cf0 20 0.00
0x400cf8 20 0.00
0x400d00 20 0.00
0x400d08 20 0.00
0x400d10 20 0.00
0x400d18 20 0.00
0x400d20 20 0.00
0x400d28 20 0.00
0x400d30 20 0.00
0x400d38 20 0.00
0x400d40 20 0.00
0x400d48 20 0.00
0x400d50 20 0.00
0x400d58 20 0.00
0x400d60 20 0.00
0x400d68 20 0.00
0x400d70 20 0.00
0x400d78 20 0.00
0x400d80 20 0.00
0x400d88 20 0.00
0x400d90 20 0.00
0x400d98 5 0.00
0x400da0 5 0.00
0x400da8 5 0.00
0x400db0 5 0.00
0x400db8 4096 0.35
0x400dc0 4096 0.35
0x400dc8 4096 0.35
0x400dd0 4096 0.35
0x400dd8 4096 0.35
0x400de0 4096 0.35
0x400de8 4096 0.35
0x400df0 4096 0.35
0x400df8 4096 0.35
0x400e00 4096 0.35
0x400e10 4096 0.35
0x400e18 4096 0.35
0x400e20 4096 0.35
0x400e28 4096 0.35
0x400e30 4096 0.35
0x400e38 4096 0.35
0x400e40 4096 0.35
0x400e48 4096 0.35
0x400e50 4096 0.35
0x400e58 4096 0.35
0x400e60 4096 0.35
0x400e68 4096 0.35
0x400e70 4096 0.35
0x400e78 512 0.04
0x400e80 512 0.04
0x400e88 512 0.04
0x400e90 512 0.04
0x400e98 512 0.04
0x400ea0 512 0.04
0x400ea8 512 0.04
0x400eb0 512 0.04
0x400eb8 4096 0.35
0x400ec0 4096 0.35
0x400ec8 4096 0.35
0x400ed0 4096 0.35
0x400ed8 4096 0.35
0x400ee0 4096 0.35
0x400ee8 4096 0.35
0x400ef0 512 0.04
0x400ef8 512 0.04
0x400f00 492 0.04
0x400f08 492 0.04
0x400f10 492 0.04
0x400f18 492 0.04
0x400f20 492 0.04
0x400f28 492 0.04
0x400f30 492 0.04
0x400f38 492 0.04
0x400f40 492 0.04
0x400f48 492 0.04
0x400f50 492 0.04
0x400f58 492 0.04
0x400f60 492 0.04
0x400f68 492 0.04
0x400f70 492 0.04
0x400f78 492 0.04
0x400f80 492 0.04
0x400f88 492 0.04
0x400f90 492 0.04
0x400fa0 492 0.04
0x400fa8 492 0.04
0x400fb0 492 0.04
0x400fb8 492 0.04
0x400fc0 492 0.04
0x400fc8 492 0.04
0x400fd0 492 0.04
0x400fd8 492 0.04
0x400fe0 492 0.04
0x400fe8 492 0.04
0x400ff0 492 0.04
0x400ff8 492 0.04
0x401000 20 0.00
0x401008 20 0.00
0x401010 20 0.00
0x401018 3584 0.30
0x401020 3584 0.30
0x401028 3584 0.30
0x401038 3584 0.30
0x401040 3584 0.30
0x401048 3584 0.30
0x401050 3584 0.30
0x401058 3584 0.30
0x401060 3584 0.30
0x401068 3584 0.30
0x401070 3584 0.30
0x401078 3584 0.30
0x401080 3584 0.30
0x401088 3584 0.30
0x401090 4096 0.35
0x401098 4096 0.35
0x4010a0 4096 0.35
0x4010a8 4096 0.35
0x4010b0 4096 0.35
0x4010b8 4096 0.35
0x4010c0 4096 0.35
0x4010c8 4096 0.35
0x4010d0 4096 0.35
0x4010d8 4096 0.35
0x4010e0 5 0.00
0x4010e8 5 0.00
0x4010f0 5 0.00
0x4010f8 5 0.00
0x401108 5 0.00
0x401110 5 0.00
0x401118 5 0.00
0x401120 5 0.00
0x401128 5 0.00
0x401130 5 0.00
0x401138 5 0.00
0x401140 5 0.00
0x401148 5 0.00
0x401150 5 0.00
0x401158 5 0.00
0x401160 5 0.00
0x401168 5 0.00
0x401170 512 0.04
0x401178 512 0.04
0x401180 512 0.04
0x401188 512 0.04
0x401190 512 0.04
0x401198 512 0.04
0x4011a0 512 0.04
0x4011a8 512 0.04
0x4011b0 512 0.04
0x4011b8 512 0.04
0x4011c0 5 0.00
0x4011c8 5 0.00
0x4011d0 5 0.00
0x4011d8 5 0.00
0x4011e0 5 0.00
0x4011e8 5 0.00
0x4011f0 5 0.00
0x4011f8 5 0.00
0x401200 5 0.00
0x401208 5 0.00
0x401210 5 0.00
0x401218 2 0.00
0x401220 2 0.00
0x401228 2 0.00
0x401230 2 0.00
0x401238 1 0.00
0x401240 1 0.00
0x401248 1 0.00
0x401250 1 0.00
0x401258 1 0.00
0x401260 1 0.00
0x401268 1 0.00
0x401270 1 0.00
0x401278 1 0.00
0x401280 1 0.00
0x401288 1 0.00
0x401290 1 0.00
0x401298 1 0.00
0x4012a0 1 0.00
0x4012a8 1 0.00
0x4012b0 1 0.00
0x4012b8 1 0.00
0x4012c0 1 0.00
0x4012c8 1 0.00
0x4012d0 1 0.00
0x4012d8 1 0.00
0x4012e0 1 0.00
0x4012e8 2048 0.17
0x4012f0 2048 0.17
0x4012f8 2048 0.17
0x401300 2048 0.17
0x401308 2048 0.17
0x401310 2048 0.17
0x401318 2048 0.17
0x401320 2048 0.17
0x401330 2048 0.17
0x401338 2048 0.17
0x401340 2048 0.17
0x401348 2048 0.17
0x401350 2048 0.17
0x401358 1 0.00
0x401360 1 0.00
0x401368 1 0.00
0x401370 1 0.00
0x401378 1 0.00
0x401380 1 0.00
0x401390 1 0.00
0x401398 1 0.00
0x4013a0 1 0.00
0x4013a8 1 0.00
0x4013b0 1 0.00
0x4013b8 1 0.00
0x4013c0 1 0.00
0x4013c8 1 0.00
0x4013d0 1 0.00
0x4013d8 1 0.00
0x4013e0 1 0.00
0x4013e8 1 0.00
0x4013f0 1 0.00
0x4013f8 1 0.00
0x401400 1 0.00
0x401408 1 0.00
0x401410 1 0.00
0x401418 1 0.00
0x401420 1 0.00
0x401428 1 0.00
0x401430 1 0.00
0x401438 1 0.00
0x401440 1 0.00
0x4014f0 1 0.00
0x4014f8 1 0.00
0x401500 1 0.00
0x401508 1 0.00
0x401510 1 0.00
0x401560 1 0.00
0x401568 1 0.00
0x401570 1 0.00
0x401578 1 0.00
0x401580 1 0.00
0x401588 1 0.00
0x401590 1 0.00
0x401598 1 0.00
0x4015a0 1 0.00
0x4015a8 1 0.00
0x4015b0 1 0.00
0x4015b8 1 0.00
0x4015c8 1 0.00
0x4015d0 1 0.00
0x4015d8 1 0.00
0x4015e0 1 0.00
0x4015e8 1 0.00
0x401800 1 0.00
0x401808 1 0.00
0x401810 1 0.00
0x401818 1 0.00
0x401820 1 0.00
0x401828 1 0.00
0x401830 1 0.00
0x401850 1 0.00
0x401870 1 0.00
0x401878 1 0.00
0x401880 1 0.00
0x401888 1 0.00
0x401890 1 0.00
0x401898 1 0.00
0x4018b8 1 0.00
0x4018c0 1 0.00
0x4018c8 1 0.00
0x4018d0 1 0.00
0x4018f0 1 0.00
0x4018f8 1 0.00
0x401900 1 0.00
0x401908 1 0.00
0x401910 1 0.00
0x401918 1 0.00
0x401920 1 0.00
0x401928 1 0.00
0x401930 1 0.00
0x401938 1 0.00
0x401940 1 0.00
0x401948 1 0.00
0x401950 1 0.00
0x401958 1 0.00
0x401960 1 0.00
0x401968 1 0.00
0x401970 1 0.00
0x401978 1 0.00
0x401980 1 0.00
0x401988 1 0.00
0x401990 1 0.00
0x401998 1 0.00
0x4019a0 1 0.00
0x4019a8 1 0.00
0x4019b8 1 0.00
0x4019c0 1 0.00
0x4019c8 1 0.00
0x4019d0 1 0.00
0x4019d8 1 0.00
0x4019e0 1 0.00
0x4019e8 1 0.00
0x4019f0 1 0.00
0x4019f8 1 0.00
0x401a00 1 0.00
0x401a08 1 0.00
0x401a10 1 0.00
0x401a18 1 0.00
0x401a20 1 0.00
0x401a28 1 0.00
0x401a30 1 0.00
0x401a38 1 0.00
0x401a40 1 0.00
0x401a48 1 0.00
0x401a50 1 0.00
0x401a58 1 0.00
0x401a60 1 0.00
0x401a68 1 0.00
0x401a70 1 0.00
0x401a78 1 0.00
0x401a88 1 0.00
0x401a90 1 0.00
0x401a98 1 0.00
0x401aa0 1 0.00
0x401aa8 1 0.00
0x401ab0 1 0.00
0x401ab8 1 0.00
0x401ac0 1 0.00
0x401ac8 1 0.00
0x401ad0 1 0.00
0x401ad8 1 0.00
0x401ae0 1 0.00
0x401ae8 1 0.00
0x401af0 1 0.00
0x401af8 1 0.00
0x401b00 1 0.00
0x401b08 1 0.00
0x401b38 1 0.00
0x401b40 1 0.00
0x401b50 1 0.00
0x401b58 1 0.00
0x401b70 1 0.00
0x401b78 1 0.00
0x401b80 1 0.00
0x401b88 1 0.00
0x401b98 1 0.00
0x401ba0 1 0.00
0x401ba8 1 0.00
0x401bb0 1 0.00
0x401bb8 1 0.00
0x401e40 1 0.00
0x401e48 1 0.00
0x401e50 1 0.00
0x401e58 1 0.00
0x401e68 1 0.00
0x401e70 1 0.00
0x401e78 1 0.00
0x401e80 1 0.00
0x401e88 1 0.00
0x401e90 1 0.00
0x401e98 1 0.00
0x401ea0 1 0.00
0x401ea8 1 0.00
0x401eb0 1 0.00
0x401eb8 1 0.00
0x401ec0 1 0.00
0x401ec8 1 0.00
0x401ed0 1 0.00
0x401ed8 1 0.00
0x401ee0 1 0.00
0x401ee8 1 0.00
0x401ef0 1 0.00
0x401ef8 1 0.00
0x401f00 1 0.00
0x401f08 1 0.00
0x401f10 1 0.00
0x401f28 1 0.00
0x401f30 1 0.00
0x401f38 1 0.00
0x401f40 1 0.00
0x401f48 1 0.00
0x401f50 1 0.00
0x401f60 1 0.00
0x401f68 1 0.00
0x402300 1 0.00
0x402308 1 0.00
0x402310 1 0.00
0x402318 1 0.00
0x402320 1 0.00
0x402328 1 0.00
0x402330 1 0.00
0x402338 1 0.00
0x402340 1 0.00
0x402348 1 0.00
0x402350 1 0.00
0x402358 1 0.00
0x402360 1 0.00
0x402368 1 0.00
0x402370 1 0.00
0x402378 1 0.00
0x402380 1 0.00
0x402388 1 0.00
0x402390 1 0.00
0x402398 1 0.00
0x4023a0 1 0.00
0x4023a8 1 0.00
0x4023b0 1 0.00
0x4023b8 1 0.00
0x4023c0 1 0.00
0x4023c8 1 0.00
0x4024b0 1 0.00
0x4024b8 1 0.00
0x4024c0 1 0.00
0x4024c8 1 0.00
0x4024d0 1 0.00
0x4024d8 1 0.00
0x4024e0 1 0.00
0x4024f0 1 0.00
0x4024f8 1 0.00
0x402500 1 0.00
0x402508 1 0.00
0x402510 1 0.00
0x402518 1 0.00
0x402520 1 0.00
0x402528 1 0.00
0x402530 1 0.00
0x402538 1 0.00
0x402540 1 0.00
0x402548 1 0.00
0x402550 1 0.00
0x402558 1 0.00
0x402560 1 0.00
0x402568 1 0.00
0x402570 1 0.00
0x402808 1 0.00
0x402810 1 0.00
0x402818 1 0.00
0x402820 1 0.00
0x402828 1 0.00
0x402830 1 0.00
0x402838 1 0.00
0x402840 1 0.00
0x402850 4 0.00
0x402858 4 0.00
0x402860 4 0.00
0x402868 4 0.00
0x402870 4 0.00
0x402878 4 0.00
0x402880 4 0.00
0x402888 1 0.00
0x402890 1 0.00
0x402898 1 0.00
0x4028a0 1 0.00
0x4028a8 1 0.00
0x4028b0 1 0.00
0x4028b8 3 0.00
0x4028c0 3 0.00
0x4028d8 3 0.00
0x4028e0 3 0.00
0x4028e8 3 0.00
0x4028f0 3 0.00
0x4028f8 3 0.00
0x402900 3 0.00
0x402908 1 0.00
0x402910 1 0.00
0x402918 3 0.00
0x402920 3 0.00
0x402928 3 0.00
0x402930 3 0.00
0x402948 3 0.00
0x402950 3 0.00
0x402958 3 0.00
0x402960 3 0.00
0x402988 3 0.00
0x402990 3 0.00
0x402998 3 0.00
0x4029a0 2 0.00
0x4029a8 2 0.00
0x4029b0 2 0.00
0x4029b8 2 0.00
0x4029c0 2 0.00
0x4029d8 3 0.00
0x4029e0 3 0.00
0x4029e8 1 0.00
0x4029f0 1 0.00
0x4029f8 1 0.00
0x402a00 1 0.00
0x402a08 3 0.00
0x402a10 3 0.00
0x402a18 2 0.00
0x402a20 2 0.00
0x402a28 2 0.00
0x402a30 2 0.00
0x402a38 1 0.00
0x402a40 1 0.00
0x402a48 1 0.00
0x402a50 1 0.00
0x402a58 1 0.00
0x402a78 1 0.00
0x402a80 3 0.00
0x402a88 3 0.00
0x402a90 3 0.00
0x402a98 4 0.00
0x402aa0 4 0.00
0x402aa8 4 0.00
0x402ab0 4 0.00
0x402ab8 4 0.00
0x402ac0 4 0.00
0x402af0 1 0.00
0x402af8 1 0.00
0x402b00 1 0.00
0x402b08 1 0.00
0x402b40 1 0.00
0x402b48 1 0.00
0x402b50 1 0.00
0x402b58 1 0.00
0x402b60 1 0.00
0x402b68 1 0.00
0x402b70 3 0.00
0x402b78 3 0.00
0x402b80 3 0.00
0x402b88 3 0.00
0x402b90 3 0.00
0x402b98 3 0.00
0x402ba0 3 0.00
0x402ba8 3 0.00
0x402bb0 2 0.00
0x402bb8 2 0.00
0x402bc0 2 0.00
0x402bc8 2 0.00
0x402bd0 2 0.00
0x402bd8 2 0.00
0x402be0 1 0.00
0x402be8 1 0.00
0x402bf0 1 0.00
0x402bf8 1 0.00
0x402c00 1 0.00
0x402c08 1 0.00
0x402c10 1 0.00
0x402c18 1 0.00
0x402c78 1 0.00
0x402c80 1 0.00
0x402c88 1 0.00
0x402c90 3 0.00
0x402c98 3 0.00
0x402ca0 3 0.00
0x402ca8 3 0.00
0x402cb0 3 0.00
0x402cb8 3 0.00
0x402cc0 3 0.00
0x402cc8 3 0.00
0x402cd0 3 0.00
0x402cd8 3 0.00
0x402ce0 4 0.00
0x402ce8 4 0.00
0x402cf0 4 0.00
0x402cf8 4 0.00
0x402d00 4 0.00
0x402d08 4 0.00
0x402d10 4 0.00
0x402d18 4 0.00
0x402d20 4 0.00
0x402d28 4 0.00
0x402d58 4 0.00
0x402d60 4 0.00
0x402d68 4 0.00
0x402d70 390 0.03
0x402d78 390 0.03
0x402d80 390 0.03
0x402d88 390 0.03
0x402d90 390 0.03
0x402d98 390 0.03
0x402da0 390 0.03
0x402da8 390 0.03
0x402db0 390 0.03
0x402db8 390 0.03
0x402dc0 390 0.03
0x402dc8 390 0.03
0x402dd0 4 0.00
0x402dd8 4 0.00
0x402de0 4 0.00
0x402de8 12 0.00
0x402df0 12 0.00
0x402df8 12 0.00
0x402e00 12 0.00
0x402e08 4 0.00
0x402e10 4 0.00
0x402e38 4 0.00
0x402e40 4 0.00
0x403010 1 0.00
0x403018 1 0.00
0x403020 1 0.00
0x403028 1 0.00
0x403030 1 0.00
0x403038 1 0.00
0x403040 1 0.00
0x403048 1 0.00
0x403050 1 0.00
0x403058 1 0.00
0x403068 1 0.00
0x403070 1 0.00
0x403078 1 0.00
0x403080 1 0.00
0x403088 1 0.00
0x403090 1 0.00
0x403098 1 0.00
0x4030a0 1 0.00
0x4030a8 1 0.00
0x4030b0 1 0.00
0x4030b8 1 0.00
0x4030c0 1 0.00
0x4030c8 1 0.00
0x4030d0 1 0.00
0x4030d8 1 0.00
0x4030e0 1 0.00
0x4030e8 1 0.00
0x4030f0 1 0.00
0x4030f8 1 0.00
0x403100 1 0.00
0x403108 1 0.00
0x403110 1 0.00
0x403118 1 0.00
0x403120 1 0.00
0x403128 1 0.00
0x403178 1 0.00
0x403180 1 0.00
0x403188 1 0.00
0x403190 1 0.00
0x403198 1 0.00
0x4031a0 1 0.00
0x4031a8 1 0.00
0x4031c0 1 0.00
0x4031c8 1 0.00
0x4031d0 1 0.00
0x4031d8 1 0.00
0x4031e0 1 0.00
0x4031e8 1 0.00
0x4031f0 1 0.00
0x4031f8 1 0.00
0x403200 1 0.00
0x403208 1 0.00
0x403210 1 0.00
0x403218 1 0.00
0x403220 1 0.00
0x403270 1 0.00
0x403278 1 0.00
0x403280 1 0.00
0x403288 1 0.00
0x403290 1 0.00
0x403298 1 0.00
0x4032a0 1 0.00
0x4032a8 1 0.00
0x4032b0 1 0.00
0x4032b8 1 0.00
0x4032c0 1 0.00
0x4032c8 1 0.00
0x4032d0 1 0.00
0x4032d8 1 0.00
0x4032e0 1 0.00
0x4032e8 1 0.00
0x4032f0 1 0.00
0x4032f8 1 0.00
0x403300 1 0.00
0x403308 1 0.00
0x403310 1 0.00
0x403318 1 0.00
0x403320 1 0.00
0x403328 1 0.00
0x403330 1 0.00
0x403338 1 0.00
0x403340 1 0.00
0x403348 1 0.00
0x403400 1 0.00
0x403408 1 0.00
0x403410 1 0.00
0x403418 1 0.00
0x403420 1 0.00
0x403570 1 0.00
0x403578 1 0.00
0x403888 1 0.00
0x403890 1 0.00
0x403898 1 0.00
0x4038a0 1 0.00
0x4038a8 1 0.00
0x4038b0 1 0.00
0x4038b8 1 0.00
0x4038c0 1 0.00
0x4038c8 1 0.00
0x4038d0 1 0.00
0x4038d8 1 0.00
0x4038e0 1 0.00
0x403908 1 0.00
0x403910 1 0.00
0x403940 1 0.00
0x403948 1 0.00
0x403950 1 0.00
0x403958 1 0.00
0x403d88 2 0.00
0x403d90 2 0.00
0x403d98 2 0.00
0x403da0 2 0.00
0x403da8 2 0.00
0x403db0 2 0.00
0x403db8 2 0.00
0x403dc0 2 0.00
0x403dc8 2 0.00
0x403dd0 2 0.00
0x403dd8 2 0.00
0x403de0 2 0.00
0x403de8 2 0.00
0x403df0 2 0.00
0x403df8 2 0.00
0x403e00 2 0.00
0x403e08 2 0.00
0x403e10 2 0.00
0x403e18 2 0.00
0x403e20 2 0.00
0x403e28 2 0.00
0x403e30 2 0.00
0x403e38 2 0.00
0x403e40 2 0.00
0x403e48 2 0.00
0x403e50 2 0.00
0x403e58 2 0.00
0x403e60 2 0.00
0x404018 2 0.00
0x404020 2 0.00
0x404028 1 0.00
0x404030 1 0.00
0x404038 1 0.00
0x404040 1 0.00
0x404048 1 0.00
0x404050 1 0.00
0x404058 1 0.00
0x4040c0 2 0.00
0x4040c8 2 0.00
0x4040d0 2 0.00
0x4040d8 2 0.00
0x404110 2 0.00
0x404118 2 0.00
0x404120 2 0.00
0x404128 2 0.00
0x404130 2 0.00
0x404138 2 0.00
0x404140 2 0.00
0x404148 2 0.00
0x404150 2 0.00
0x404158 2 0.00
0x404160 2 0.00
0x404460 2 0.00
0x404468 2 0.00
0x404470 2 0.00
0x404478 2 0.00
0x404480 2 0.00
0x404488 2 0.00
0x404490 2 0.00
0x404498 2 0.00
0x4044a0 2 0.00
0x4044b8 2 0.00
0x4044c0 2 0.00
0x4044c8 2 0.00
0x4044d0 2 0.00
0x4044d8 2 0.00
0x4044e0 2 0.00
0x4044e8 2 0.00
0x4044f0 2 0.00
0x4044f8 2 0.00
0x404500 2 0.00
0x404508 2 0.00
0x4049a0 2 0.00
0x4049a8 2 0.00
0x4049b0 2 0.00
0x4049b8 2 0.00
0x4049c0 2 0.00
0x4049c8 2 0.00
0x4049d0 2 0.00
0x4049d8 2 0.00
0x4049e0 2 0.00
0x4049e8 2 0.00
0x4049f0 2 0.00
0x4049f8 2 0.00
0x404a00 2 0.00
0x404a08 2 0.00
0x404a10 2 0.00
0x404a28 2 0.00
0x404a30 2 0.00
0x404a38 2 0.00
0x404a40 2 0.00
0x404a48 2 0.00
0x404a50 2 0.00
0x404a58 2 0.00
0x404a80 2 0.00
0x404a88 2 0.00
0x404a90 2 0.00
0x404a98 2 0.00
0x404aa0 2 0.00
0x404ad8 2 0.00
0x404ae0 2 0.00
0x404ae8 2 0.00
0x404af0 2 0.00
0x404af8 2 0.00
0x404b00 2 0.00
0x404b08 2 0.00
0x404b10 2 0.00
0x404b18 2 0.00
0x404b20 2 0.00
0x404b28 2 0.00
0x404b30 2 0.00
0x404b38 2 0.00
0x404b40 2 0.00
0x404b48 2 0.00
0x404b50 2 0.00
0x404b58 2 0.00
0x404b60 2 0.00
0x404b68 2 0.00
0x404b70 2 0.00
0x404b78 2 0.00
0x404b80 2 0.00
0x404b88 2 0.00
0x404b90 2 0.00
0x404b98 2 0.00
0x404ba0 2 0.00
0x404ba8 2 0.00
0x404bb0 2 0.00
0x404bb8 2 0.00
0x404bc0 2 0.00
0x404bc8 1 0.00
0x404bd0 1 0.00
0x404be8 1 0.00
0x404bf0 1 0.00
0x404bf8 1 0.00
0x404c00 1 0.00
0x404c08 1 0.00
0x404c10 1 0.00
0x404c18 1 0.00
0x404c50 1 0.00
0x404c58 1 0.00
0x404c60 1 0.00
0x404c88 2 0.00
0x404c90 2 0.00
0x404c98 2 0.00
0x404ca0 2 0.00
0x404ca8 2 0.00
0x404cb0 2 0.00
0x404cb8 2 0.00
0x404cc0 2 0.00
0x404cc8 2 0.00
0x404cf8 2 0.00
0x404dc0 2 0.00
0x404dc8 2 0.00
0x404dd0 2 0.00
0x404df8 2 0.00
0x404e00 2 0.00
0x404e10 2 0.00
0x404e18 2 0.00
0x404e20 2 0.00
0x404e28 2 0.00
0x404e30 2 0.00
0x404e38 2 0.00
0x404e68 2 0.00
0x404e70 2 0.00
0x404e78 2 0.00
0x404e80 2 0.00
0x404e98 2 0.00
0x404ea0 2 0.00
0x404ea8 2 0.00
0x404eb0 2 0.00
0x404eb8 2 0.00
0x404ec0 2 0.00
0x404ec8 2 0.00
0x404ed0 2 0.00
0x405468 3 0.00
0x405470 3 0.00
0x405478 3 0.00
0x405480 3 0.00
0x405488 3 0.00
0x405490 3 0.00
0x405498 3 0.00
0x4054a0 3 0.00
0x4054a8 3 0.00
0x4054b0 3 0.00
0x4054b8 3 0.00
0x4054c0 3 0.00
0x4054c8 3 0.00
0x4054d0 3 0.00
0x4054d8 3 0.00
0x405680 2 0.00
0x405688 2 0.00
0x405690 2 0.00
0x405698 2 0.00
0x4056a0 2 0.00
0x4056a8 2 0.00
0x405b20 3 0.00
0x405b28 3 0.00
0x405b30 3 0.00
0x405b38 3 0.00
0x405b50 3 0.00
0x405b58 3 0.00
0x405b60 3 0.00
0x405b68 3 0.00
0x405b70 3 0.00
0x405b78 3 0.00
0x405b80 3 0.00
0x405b88 3 0.00
0x405b90 3 0.00
0x405b98 3 0.00
0x405ba0 3 0.00
0x406400 2 0.00
0x406408 2 0.00
0x406410 2 0.00
0x406418 2 0.00
0x406420 2 0.00
0x406428 2 0.00
0x406430 2 0.00
0x406438 2 0.00
0x406440 2 0.00
0x406448 2 0.00
0x406450 2 0.00
0x406458 1 0.00
0x406460 1 0.00
0x406468 1 0.00
0x406470 1 0.00
0x406478 1 0.00
0x406480 1 0.00
0x406488 1 0.00
0x406490 1 0.00
0x4064b8 1 0.00
0x4064c0 1 0.00
0x406500 1 0.00
0x406508 1 0.00
0x406510 2 0.00
0x406518 2 0.00
0x406520 2 0.00
0x406528 2 0.00
0x406530 2 0.00
0x406610 2 0.00
0x406618 2 0.00
0x406620 2 0.00
0x406628 2 0.00
0x406630 2 0.00
0x4066c0 3 0.00
0x4066c8 3 0.00
0x4066d0 3 0.00
0x4066e0 3 0.00
0x4066e8 3 0.00
0x4066f0 3 0.00
0x4066f8 3 0.00
0x406700 3 0.00
0x406708 3 0.00
0x406730 1 0.00
0x406738 1 0.00
0x406740 1 0.00
0x406748 1 0.00
0x406750 1 0.00
sim_num_insn_by_pc.end_dist

ld_text_base             0x00400000 # program text (code) segment base
ld_text_size                  26768 # program text (code) size in bytes
ld_data_base             0x10000000 # program initialized data segment base
ld_data_size                  18560 # program init'ed `.data' and uninit'ed `.bss' size in bytes
ld_stack_base            0x7fffc000 # program stack segment base (highest address in stack)
ld_stack_size                 16384 # program initial stack size
ld_prog_entry            0x00400140 # program entry point (initial PC)
ld_environ_base          0x7fff8000 # program environment base address address
ld_target_big_endian              0 # target executable endian-ness, non-zero if big endian
mem.page_count                   17 # total number of pages allocated
mem.page_mem                    68k # total size of memory pages allocated
mem.ptab_misses                 129 # total first level page table misses
mem.ptab_accesses           5584448 # total page table accesses
mem.ptab_miss_rate           0.0000 # first level page table miss rate

+--------------------------------------------------------------+
| effective code range:         [0, fffffff8]                  |
| effective bpred count:        0                              |
| effective sim cycles:         0                              |
| effective bpred misses:       0                              |
| effective icache misses:      0                              |
+--------------------------------------------------------------+

