sim-profile: SimpleScalar/PISA Tool Set version 3.0 of August, 2003.
Copyright (c) 1994-2003 by Todd M. Austin, Ph.D. and SimpleScalar, LLC.
All Rights Reserved. This version of SimpleScalar is licensed for academic
non-commercial use.  No portion of this work may be used by any commercial
entity, or for any commercial purpose, without the prior written permission
of SimpleScalar, LLC (info@simplescalar.com).

sim: command line: /home/sudiptac/sudiptac/Work/simplesim-3.0/sim-profile -pcstat sim_num_insn cover 

sim: simulation started @ Mon Apr  6 23:47:07 2009, options follow:

sim-profile: This simulator implements a functional simulator with
profiling support.  Run with the `-h' flag to see profiling options
available.

# -config                     # load configuration from a file
# -dumpconfig                 # dump configuration to a file
# -h                    false # print help message    
# -v                    false # verbose operation     
# -d                    false # enable debug message  
# -i                    false # start in Dlite debugger
-seed                       1 # random number generator seed (0 for timer seed)
# -q                    false # initialize and terminate immediately
# -chkpt               <null> # restore EIO trace execution from <fname>
# -redir:sim           <null> # redirect simulator output to file (non-interactive only)
# -redir:prog          <null> # redirect simulated program output to file
-nice                       0 # simulator scheduling priority
-max:inst                   0 # maximum number of inst's to execute
-all                    false # enable all profile options
-iclass                 false # enable instruction class profiling
-iprof                  false # enable instruction profiling
-brprof                 false # enable branch instruction profiling
-amprof                 false # enable address mode profiling
-segprof                false # enable load/store address segment profiling
-tsymprof               false # enable text symbol profiling
-taddrprof              false # enable text address profiling
-dsymprof               false # enable data symbol profiling
-internal               false # include compiler-internal symbols during symbol profiling
# -pcstat        sim_num_insn # profile stat(s) against text addr's (mult uses ok)

sim: ** starting functional simulation **

sim: ** simulation statistics **
sim_num_insn                   7997 # total number of instructions executed
sim_num_refs                   3779 # total number of loads and stores executed
sim_elapsed_time                  1 # total simulation time in seconds
sim_inst_rate             7997.0000 # simulation speed (in insts/sec)

sim_num_insn_by_pc     # total number of instructions executed (by text address)
sim_num_insn_by_pc.count = 828
sim_num_insn_by_pc.total = 7996
sim_num_insn_by_pc.imin = 0x400140
sim_num_insn_by_pc.imax = 0x4057b0
sim_num_insn_by_pc.average =   9.6570
sim_num_insn_by_pc.std_dev =  48.5563
sim_num_insn_by_pc.overflows = 0
# pdf == prob dist fn, cdf == cumulative dist fn
#          index      count    pdf 
sim_num_insn_by_pc.start_dist
0x400140 1 0.01
0x400148 1 0.01
0x400150 1 0.01
0x400158 1 0.01
0x400160 1 0.01
0x400168 1 0.01
0x400170 1 0.01
0x400178 1 0.01
0x400180 1 0.01
0x400188 1 0.01
0x400190 1 0.01
0x400198 1 0.01
0x4001a0 1 0.01
0x4001a8 1 0.01
0x4001b0 1 0.01
0x4001b8 1 0.01
0x4001c0 1 0.01
0x4001c8 1 0.01
0x4001d0 1 0.01
0x4001d8 1 0.01
0x4001e0 1 0.01
0x4001f0 1 0.01
0x4001f8 120 1.50
0x400200 120 1.50
0x400208 120 1.50
0x400210 120 1.50
0x400218 120 1.50
0x400220 120 1.50
0x400228 120 1.50
0x400230 120 1.50
0x400238 120 1.50
0x400248 120 1.50
0x400250 120 1.50
0x400258 120 1.50
0x400260 1 0.01
0x400268 1 0.01
0x400270 1 0.01
0x400278 1 0.01
0x400280 1 0.01
0x400288 50 0.63
0x400290 50 0.63
0x400298 50 0.63
0x4002a0 50 0.63
0x4002a8 50 0.63
0x4002b0 50 0.63
0x4002c0 50 0.63
0x4002c8 50 0.63
0x4002d0 50 0.63
0x4002d8 50 0.63
0x4002e0 1 0.01
0x4002e8 1 0.01
0x4002f0 1 0.01
0x4002f8 1 0.01
0x400300 1 0.01
0x400308 10 0.13
0x400310 10 0.13
0x400318 10 0.13
0x400320 10 0.13
0x400328 10 0.13
0x400330 10 0.13
0x400340 10 0.13
0x400348 10 0.13
0x400350 10 0.13
0x400358 10 0.13
0x400360 1 0.01
0x400368 1 0.01
0x400370 1 0.01
0x400378 1 0.01
0x400380 1 0.01
0x400388 1 0.01
0x400390 1 0.01
0x400398 1 0.01
0x4003a0 1 0.01
0x4003a8 1 0.01
0x4003b0 1 0.01
0x4003b8 1 0.01
0x4003c0 1 0.01
0x4003c8 1 0.01
0x4003d0 1 0.01
0x4003d8 1 0.01
0x4003e0 1 0.01
0x4003e8 1 0.01
0x4003f0 1 0.01
0x4003f8 1 0.01
0x400400 1 0.01
0x400408 1 0.01
0x400410 1 0.01
0x400418 1 0.01
0x400420 1 0.01
0x400428 1 0.01
0x400430 1 0.01
0x400438 1 0.01
0x400440 1 0.01
0x400448 1 0.01
0x400450 1 0.01
0x400458 1 0.01
0x400460 1 0.01
0x400468 1 0.01
0x400470 1 0.01
0x400478 1 0.01
0x400480 1 0.01
0x400488 1 0.01
0x400490 1 0.01
0x400498 1 0.01
0x4004a0 1 0.01
0x400550 1 0.01
0x400558 1 0.01
0x400560 1 0.01
0x400568 1 0.01
0x400570 1 0.01
0x4005c0 1 0.01
0x4005c8 1 0.01
0x4005d0 1 0.01
0x4005d8 1 0.01
0x4005e0 1 0.01
0x4005e8 1 0.01
0x4005f0 1 0.01
0x4005f8 1 0.01
0x400600 1 0.01
0x400608 1 0.01
0x400610 1 0.01
0x400618 1 0.01
0x400628 1 0.01
0x400630 1 0.01
0x400638 1 0.01
0x400640 1 0.01
0x400648 1 0.01
0x400860 1 0.01
0x400868 1 0.01
0x400870 1 0.01
0x400878 1 0.01
0x400880 1 0.01
0x400888 1 0.01
0x400890 1 0.01
0x4008b0 1 0.01
0x4008d0 1 0.01
0x4008d8 1 0.01
0x4008e0 1 0.01
0x4008e8 1 0.01
0x4008f0 1 0.01
0x4008f8 1 0.01
0x400918 1 0.01
0x400920 1 0.01
0x400928 1 0.01
0x400930 1 0.01
0x400950 1 0.01
0x400958 1 0.01
0x400960 1 0.01
0x400968 1 0.01
0x400970 1 0.01
0x400978 1 0.01
0x400980 1 0.01
0x400988 1 0.01
0x400990 1 0.01
0x400998 1 0.01
0x4009a0 1 0.01
0x4009a8 1 0.01
0x4009b0 1 0.01
0x4009b8 1 0.01
0x4009c0 1 0.01
0x4009c8 1 0.01
0x4009d0 1 0.01
0x4009d8 1 0.01
0x4009e0 1 0.01
0x4009e8 1 0.01
0x4009f0 1 0.01
0x4009f8 1 0.01
0x400a00 1 0.01
0x400a08 1 0.01
0x400a18 1 0.01
0x400a20 1 0.01
0x400a28 1 0.01
0x400a30 1 0.01
0x400a38 1 0.01
0x400a40 1 0.01
0x400a48 1 0.01
0x400a50 1 0.01
0x400a58 1 0.01
0x400a60 1 0.01
0x400a68 1 0.01
0x400a70 1 0.01
0x400a78 1 0.01
0x400a80 1 0.01
0x400a88 1 0.01
0x400a90 1 0.01
0x400a98 1 0.01
0x400aa0 1 0.01
0x400aa8 1 0.01
0x400ab0 1 0.01
0x400ab8 1 0.01
0x400ac0 1 0.01
0x400ac8 1 0.01
0x400ad0 1 0.01
0x400ad8 1 0.01
0x400ae8 1 0.01
0x400af0 1 0.01
0x400af8 1 0.01
0x400b00 1 0.01
0x400b08 1 0.01
0x400b10 1 0.01
0x400b18 1 0.01
0x400b20 1 0.01
0x400b28 1 0.01
0x400b30 1 0.01
0x400b38 1 0.01
0x400b40 1 0.01
0x400b48 1 0.01
0x400b50 1 0.01
0x400b58 1 0.01
0x400b60 1 0.01
0x400b68 1 0.01
0x400b98 1 0.01
0x400ba0 1 0.01
0x400bb0 1 0.01
0x400bb8 1 0.01
0x400bd0 1 0.01
0x400bd8 1 0.01
0x400be0 1 0.01
0x400be8 1 0.01
0x400bf8 1 0.01
0x400c00 1 0.01
0x400c08 1 0.01
0x400c10 1 0.01
0x400c18 1 0.01
0x400ea0 1 0.01
0x400ea8 1 0.01
0x400eb0 1 0.01
0x400eb8 1 0.01
0x400ec8 1 0.01
0x400ed0 1 0.01
0x400ed8 1 0.01
0x400ee0 1 0.01
0x400ee8 1 0.01
0x400ef0 1 0.01
0x400ef8 1 0.01
0x400f00 1 0.01
0x400f08 1 0.01
0x400f10 1 0.01
0x400f18 1 0.01
0x400f20 1 0.01
0x400f28 1 0.01
0x400f30 1 0.01
0x400f38 1 0.01
0x400f40 1 0.01
0x400f48 1 0.01
0x400f50 1 0.01
0x400f58 1 0.01
0x400f60 1 0.01
0x400f68 1 0.01
0x400f70 1 0.01
0x400f88 1 0.01
0x400f90 1 0.01
0x400f98 1 0.01
0x400fa0 1 0.01
0x400fa8 1 0.01
0x400fb0 1 0.01
0x400fc0 1 0.01
0x400fc8 1 0.01
0x401360 1 0.01
0x401368 1 0.01
0x401370 1 0.01
0x401378 1 0.01
0x401380 1 0.01
0x401388 1 0.01
0x401390 1 0.01
0x401398 1 0.01
0x4013a0 1 0.01
0x4013a8 1 0.01
0x4013b0 1 0.01
0x4013b8 1 0.01
0x4013c0 1 0.01
0x4013c8 1 0.01
0x4013d0 1 0.01
0x4013d8 1 0.01
0x4013e0 1 0.01
0x4013e8 1 0.01
0x4013f0 1 0.01
0x4013f8 1 0.01
0x401400 1 0.01
0x401408 1 0.01
0x401410 1 0.01
0x401418 1 0.01
0x401420 1 0.01
0x401428 1 0.01
0x401510 1 0.01
0x401518 1 0.01
0x401520 1 0.01
0x401528 1 0.01
0x401530 1 0.01
0x401538 1 0.01
0x401540 1 0.01
0x401550 1 0.01
0x401558 1 0.01
0x401560 1 0.01
0x401568 1 0.01
0x401570 1 0.01
0x401578 1 0.01
0x401580 1 0.01
0x401588 1 0.01
0x401590 1 0.01
0x401598 1 0.01
0x4015a0 1 0.01
0x4015a8 1 0.01
0x4015b0 1 0.01
0x4015b8 1 0.01
0x4015c0 1 0.01
0x4015c8 1 0.01
0x4015d0 1 0.01
0x401868 1 0.01
0x401870 1 0.01
0x401878 1 0.01
0x401880 1 0.01
0x401888 1 0.01
0x401890 1 0.01
0x401898 1 0.01
0x4018a0 1 0.01
0x4018b0 4 0.05
0x4018b8 4 0.05
0x4018c0 4 0.05
0x4018c8 4 0.05
0x4018d0 4 0.05
0x4018d8 4 0.05
0x4018e0 4 0.05
0x4018e8 1 0.01
0x4018f0 1 0.01
0x4018f8 1 0.01
0x401900 1 0.01
0x401908 1 0.01
0x401910 1 0.01
0x401918 3 0.04
0x401920 3 0.04
0x401938 3 0.04
0x401940 3 0.04
0x401948 3 0.04
0x401950 3 0.04
0x401958 3 0.04
0x401960 3 0.04
0x401968 1 0.01
0x401970 1 0.01
0x401978 3 0.04
0x401980 3 0.04
0x401988 3 0.04
0x401990 3 0.04
0x4019a8 3 0.04
0x4019b0 3 0.04
0x4019b8 3 0.04
0x4019c0 3 0.04
0x4019e8 3 0.04
0x4019f0 3 0.04
0x4019f8 3 0.04
0x401a00 2 0.03
0x401a08 2 0.03
0x401a10 2 0.03
0x401a18 2 0.03
0x401a20 2 0.03
0x401a38 3 0.04
0x401a40 3 0.04
0x401a48 1 0.01
0x401a50 1 0.01
0x401a58 1 0.01
0x401a60 1 0.01
0x401a68 3 0.04
0x401a70 3 0.04
0x401a78 2 0.03
0x401a80 2 0.03
0x401a88 2 0.03
0x401a90 2 0.03
0x401a98 1 0.01
0x401aa0 1 0.01
0x401aa8 1 0.01
0x401ab0 1 0.01
0x401ab8 1 0.01
0x401ad8 1 0.01
0x401ae0 3 0.04
0x401ae8 3 0.04
0x401af0 3 0.04
0x401af8 4 0.05
0x401b00 4 0.05
0x401b08 4 0.05
0x401b10 4 0.05
0x401b18 4 0.05
0x401b20 4 0.05
0x401b50 1 0.01
0x401b58 1 0.01
0x401b60 1 0.01
0x401b68 1 0.01
0x401ba0 1 0.01
0x401ba8 1 0.01
0x401bb0 1 0.01
0x401bb8 1 0.01
0x401bc0 1 0.01
0x401bc8 1 0.01
0x401bd0 2 0.03
0x401bd8 2 0.03
0x401be0 2 0.03
0x401be8 2 0.03
0x401bf0 2 0.03
0x401bf8 2 0.03
0x401c00 2 0.03
0x401c08 2 0.03
0x401c10 1 0.01
0x401c18 1 0.01
0x401c20 1 0.01
0x401c28 1 0.01
0x401c30 1 0.01
0x401c38 1 0.01
0x401c40 1 0.01
0x401c48 1 0.01
0x401c50 1 0.01
0x401c58 1 0.01
0x401c60 1 0.01
0x401c68 1 0.01
0x401c70 1 0.01
0x401c78 1 0.01
0x401cd8 1 0.01
0x401ce0 1 0.01
0x401ce8 1 0.01
0x401cf0 3 0.04
0x401cf8 3 0.04
0x401d00 3 0.04
0x401d08 3 0.04
0x401d10 3 0.04
0x401d18 3 0.04
0x401d20 3 0.04
0x401d28 3 0.04
0x401d30 3 0.04
0x401d38 3 0.04
0x401d40 4 0.05
0x401d48 4 0.05
0x401d50 4 0.05
0x401d58 4 0.05
0x401d60 4 0.05
0x401d68 4 0.05
0x401d70 4 0.05
0x401d78 4 0.05
0x401d80 4 0.05
0x401d88 4 0.05
0x401db8 4 0.05
0x401dc0 4 0.05
0x401dc8 4 0.05
0x401dd0 390 4.88
0x401dd8 390 4.88
0x401de0 390 4.88
0x401de8 390 4.88
0x401df0 390 4.88
0x401df8 390 4.88
0x401e00 390 4.88
0x401e08 390 4.88
0x401e10 390 4.88
0x401e18 390 4.88
0x401e20 390 4.88
0x401e28 390 4.88
0x401e30 4 0.05
0x401e38 4 0.05
0x401e40 4 0.05
0x401e48 12 0.15
0x401e50 12 0.15
0x401e58 12 0.15
0x401e60 12 0.15
0x401e68 4 0.05
0x401e70 4 0.05
0x401e98 4 0.05
0x401ea0 4 0.05
0x402070 1 0.01
0x402078 1 0.01
0x402080 1 0.01
0x402088 1 0.01
0x402090 1 0.01
0x402098 1 0.01
0x4020a0 1 0.01
0x4020a8 1 0.01
0x4020b0 1 0.01
0x4020b8 1 0.01
0x4020c8 1 0.01
0x4020d0 1 0.01
0x4020d8 1 0.01
0x4020e0 1 0.01
0x4020e8 1 0.01
0x4020f0 1 0.01
0x4020f8 1 0.01
0x402100 1 0.01
0x402108 1 0.01
0x402110 1 0.01
0x402118 1 0.01
0x402120 1 0.01
0x402128 1 0.01
0x402130 1 0.01
0x402138 1 0.01
0x402140 1 0.01
0x402148 1 0.01
0x402150 1 0.01
0x402158 1 0.01
0x402160 1 0.01
0x402168 1 0.01
0x402170 1 0.01
0x402178 1 0.01
0x402180 1 0.01
0x402188 1 0.01
0x4021d8 1 0.01
0x4021e0 1 0.01
0x4021e8 1 0.01
0x4021f0 1 0.01
0x4021f8 1 0.01
0x402200 1 0.01
0x402208 1 0.01
0x402220 1 0.01
0x402228 1 0.01
0x402230 1 0.01
0x402238 1 0.01
0x402240 1 0.01
0x402248 1 0.01
0x402250 1 0.01
0x402258 1 0.01
0x402260 1 0.01
0x402268 1 0.01
0x402270 1 0.01
0x402278 1 0.01
0x402280 1 0.01
0x4022d0 1 0.01
0x4022d8 1 0.01
0x4022e0 1 0.01
0x4022e8 1 0.01
0x4022f0 1 0.01
0x4022f8 1 0.01
0x402300 1 0.01
0x402308 1 0.01
0x402310 1 0.01
0x402318 1 0.01
0x402320 1 0.01
0x402328 1 0.01
0x402330 1 0.01
0x402338 1 0.01
0x402340 1 0.01
0x402348 1 0.01
0x402350 1 0.01
0x402358 1 0.01
0x402360 1 0.01
0x402368 1 0.01
0x402370 1 0.01
0x402378 1 0.01
0x402380 1 0.01
0x402388 1 0.01
0x402390 1 0.01
0x402398 1 0.01
0x4023a0 1 0.01
0x4023a8 1 0.01
0x402460 1 0.01
0x402468 1 0.01
0x402470 1 0.01
0x402478 1 0.01
0x402480 1 0.01
0x4025d0 1 0.01
0x4025d8 1 0.01
0x4028e8 1 0.01
0x4028f0 1 0.01
0x4028f8 1 0.01
0x402900 1 0.01
0x402908 1 0.01
0x402910 1 0.01
0x402918 1 0.01
0x402920 1 0.01
0x402928 1 0.01
0x402930 1 0.01
0x402938 1 0.01
0x402940 1 0.01
0x402968 1 0.01
0x402970 1 0.01
0x4029a0 1 0.01
0x4029a8 1 0.01
0x4029b0 1 0.01
0x4029b8 1 0.01
0x402de8 2 0.03
0x402df0 2 0.03
0x402df8 2 0.03
0x402e00 2 0.03
0x402e08 2 0.03
0x402e10 2 0.03
0x402e18 2 0.03
0x402e20 2 0.03
0x402e28 2 0.03
0x402e30 2 0.03
0x402e38 2 0.03
0x402e40 2 0.03
0x402e48 2 0.03
0x402e50 2 0.03
0x402e58 2 0.03
0x402e60 2 0.03
0x402e68 2 0.03
0x402e70 2 0.03
0x402e78 2 0.03
0x402e80 2 0.03
0x402e88 2 0.03
0x402e90 2 0.03
0x402e98 2 0.03
0x402ea0 2 0.03
0x402ea8 2 0.03
0x402eb0 2 0.03
0x402eb8 2 0.03
0x402ec0 2 0.03
0x403078 2 0.03
0x403080 2 0.03
0x403088 1 0.01
0x403090 1 0.01
0x403098 1 0.01
0x4030a0 1 0.01
0x4030a8 1 0.01
0x4030b0 1 0.01
0x4030b8 1 0.01
0x403120 2 0.03
0x403128 2 0.03
0x403130 2 0.03
0x403138 2 0.03
0x403170 2 0.03
0x403178 2 0.03
0x403180 2 0.03
0x403188 2 0.03
0x403190 2 0.03
0x403198 2 0.03
0x4031a0 2 0.03
0x4031a8 2 0.03
0x4031b0 2 0.03
0x4031b8 2 0.03
0x4031c0 2 0.03
0x4034c0 2 0.03
0x4034c8 2 0.03
0x4034d0 2 0.03
0x4034d8 2 0.03
0x4034e0 2 0.03
0x4034e8 2 0.03
0x4034f0 2 0.03
0x4034f8 2 0.03
0x403500 2 0.03
0x403518 2 0.03
0x403520 2 0.03
0x403528 2 0.03
0x403530 2 0.03
0x403538 2 0.03
0x403540 2 0.03
0x403548 2 0.03
0x403550 2 0.03
0x403558 2 0.03
0x403560 2 0.03
0x403568 2 0.03
0x403a00 2 0.03
0x403a08 2 0.03
0x403a10 2 0.03
0x403a18 2 0.03
0x403a20 2 0.03
0x403a28 2 0.03
0x403a30 2 0.03
0x403a38 2 0.03
0x403a40 2 0.03
0x403a48 2 0.03
0x403a50 2 0.03
0x403a58 2 0.03
0x403a60 2 0.03
0x403a68 2 0.03
0x403a70 2 0.03
0x403a88 2 0.03
0x403a90 2 0.03
0x403a98 2 0.03
0x403aa0 2 0.03
0x403aa8 2 0.03
0x403ab0 2 0.03
0x403ab8 2 0.03
0x403ae0 2 0.03
0x403ae8 2 0.03
0x403af0 2 0.03
0x403af8 2 0.03
0x403b00 2 0.03
0x403b38 2 0.03
0x403b40 2 0.03
0x403b48 2 0.03
0x403b50 2 0.03
0x403b58 2 0.03
0x403b60 2 0.03
0x403b68 2 0.03
0x403b70 2 0.03
0x403b78 2 0.03
0x403b80 2 0.03
0x403b88 2 0.03
0x403b90 2 0.03
0x403b98 2 0.03
0x403ba0 2 0.03
0x403ba8 2 0.03
0x403bb0 2 0.03
0x403bb8 2 0.03
0x403bc0 2 0.03
0x403bc8 2 0.03
0x403bd0 2 0.03
0x403bd8 2 0.03
0x403be0 2 0.03
0x403be8 2 0.03
0x403bf0 2 0.03
0x403bf8 2 0.03
0x403c00 2 0.03
0x403c08 2 0.03
0x403c10 2 0.03
0x403c18 2 0.03
0x403c20 2 0.03
0x403c28 1 0.01
0x403c30 1 0.01
0x403c48 1 0.01
0x403c50 1 0.01
0x403c58 1 0.01
0x403c60 1 0.01
0x403c68 1 0.01
0x403c70 1 0.01
0x403c78 1 0.01
0x403cb0 1 0.01
0x403cb8 1 0.01
0x403cc0 1 0.01
0x403ce8 2 0.03
0x403cf0 2 0.03
0x403cf8 2 0.03
0x403d00 2 0.03
0x403d08 2 0.03
0x403d10 2 0.03
0x403d18 2 0.03
0x403d20 2 0.03
0x403d28 2 0.03
0x403d58 2 0.03
0x403e20 2 0.03
0x403e28 2 0.03
0x403e30 2 0.03
0x403e58 2 0.03
0x403e60 2 0.03
0x403e70 2 0.03
0x403e78 2 0.03
0x403e80 2 0.03
0x403e88 2 0.03
0x403e90 2 0.03
0x403e98 2 0.03
0x403ec8 2 0.03
0x403ed0 2 0.03
0x403ed8 2 0.03
0x403ee0 2 0.03
0x403ef8 2 0.03
0x403f00 2 0.03
0x403f08 2 0.03
0x403f10 2 0.03
0x403f18 2 0.03
0x403f20 2 0.03
0x403f28 2 0.03
0x403f30 2 0.03
0x4044c8 3 0.04
0x4044d0 3 0.04
0x4044d8 3 0.04
0x4044e0 3 0.04
0x4044e8 3 0.04
0x4044f0 3 0.04
0x4044f8 3 0.04
0x404500 3 0.04
0x404508 3 0.04
0x404510 3 0.04
0x404518 3 0.04
0x404520 3 0.04
0x404528 3 0.04
0x404530 3 0.04
0x404538 3 0.04
0x4046e0 2 0.03
0x4046e8 2 0.03
0x4046f0 2 0.03
0x4046f8 2 0.03
0x404700 2 0.03
0x404708 2 0.03
0x404b80 3 0.04
0x404b88 3 0.04
0x404b90 3 0.04
0x404b98 3 0.04
0x404bb0 3 0.04
0x404bb8 3 0.04
0x404bc0 3 0.04
0x404bc8 3 0.04
0x404bd0 3 0.04
0x404bd8 3 0.04
0x404be0 3 0.04
0x404be8 3 0.04
0x404bf0 3 0.04
0x404bf8 3 0.04
0x404c00 3 0.04
0x405460 2 0.03
0x405468 2 0.03
0x405470 2 0.03
0x405478 2 0.03
0x405480 2 0.03
0x405488 2 0.03
0x405490 2 0.03
0x405498 2 0.03
0x4054a0 2 0.03
0x4054a8 2 0.03
0x4054b0 2 0.03
0x4054b8 1 0.01
0x4054c0 1 0.01
0x4054c8 1 0.01
0x4054d0 1 0.01
0x4054d8 1 0.01
0x4054e0 1 0.01
0x4054e8 1 0.01
0x4054f0 1 0.01
0x405518 1 0.01
0x405520 1 0.01
0x405560 1 0.01
0x405568 1 0.01
0x405570 2 0.03
0x405578 2 0.03
0x405580 2 0.03
0x405588 2 0.03
0x405590 2 0.03
0x405670 2 0.03
0x405678 2 0.03
0x405680 2 0.03
0x405688 2 0.03
0x405690 2 0.03
0x405720 3 0.04
0x405728 3 0.04
0x405730 3 0.04
0x405740 3 0.04
0x405748 3 0.04
0x405750 3 0.04
0x405758 3 0.04
0x405760 3 0.04
0x405768 3 0.04
0x405790 1 0.01
0x405798 1 0.01
0x4057a0 1 0.01
0x4057a8 1 0.01
0x4057b0 1 0.01
sim_num_insn_by_pc.end_dist

ld_text_base             0x00400000 # program text (code) segment base
ld_text_size                  22768 # program text (code) size in bytes
ld_data_base             0x10000000 # program initialized data segment base
ld_data_size                   4096 # program init'ed `.data' and uninit'ed `.bss' size in bytes
ld_stack_base            0x7fffc000 # program stack segment base (highest address in stack)
ld_stack_size                 16384 # program initial stack size
ld_prog_entry            0x00400140 # program entry point (initial PC)
ld_environ_base          0x7fff8000 # program environment base address address
ld_target_big_endian              0 # target executable endian-ness, non-zero if big endian
mem.page_count                   12 # total number of pages allocated
mem.page_mem                    48k # total size of memory pages allocated
mem.ptab_misses                  12 # total first level page table misses
mem.ptab_accesses            185254 # total page table accesses
mem.ptab_miss_rate           0.0001 # first level page table miss rate

+--------------------------------------------------------------+
| effective code range:         [0, fffffff8]                  |
| effective bpred count:        0                              |
| effective sim cycles:         0                              |
| effective bpred misses:       0                              |
| effective icache misses:      0                              |
+--------------------------------------------------------------+

