sim-profile: SimpleScalar/PISA Tool Set version 3.0 of August, 2003.
Copyright (c) 1994-2003 by Todd M. Austin, Ph.D. and SimpleScalar, LLC.
All Rights Reserved. This version of SimpleScalar is licensed for academic
non-commercial use.  No portion of this work may be used by any commercial
entity, or for any commercial purpose, without the prior written permission
of SimpleScalar, LLC (info@simplescalar.com).

sim: command line: /home/sudiptac/sudiptac/Work/simplesim-3.0/sim-profile -pcstat sim_num_insn crc 

sim: simulation started @ Mon Apr  6 23:48:05 2009, options follow:

sim-profile: This simulator implements a functional simulator with
profiling support.  Run with the `-h' flag to see profiling options
available.

# -config                     # load configuration from a file
# -dumpconfig                 # dump configuration to a file
# -h                    false # print help message    
# -v                    false # verbose operation     
# -d                    false # enable debug message  
# -i                    false # start in Dlite debugger
-seed                       1 # random number generator seed (0 for timer seed)
# -q                    false # initialize and terminate immediately
# -chkpt               <null> # restore EIO trace execution from <fname>
# -redir:sim           <null> # redirect simulator output to file (non-interactive only)
# -redir:prog          <null> # redirect simulated program output to file
-nice                       0 # simulator scheduling priority
-max:inst                   0 # maximum number of inst's to execute
-all                    false # enable all profile options
-iclass                 false # enable instruction class profiling
-iprof                  false # enable instruction profiling
-brprof                 false # enable branch instruction profiling
-amprof                 false # enable address mode profiling
-segprof                false # enable load/store address segment profiling
-tsymprof               false # enable text symbol profiling
-taddrprof              false # enable text address profiling
-dsymprof               false # enable data symbol profiling
-internal               false # include compiler-internal symbols during symbol profiling
# -pcstat        sim_num_insn # profile stat(s) against text addr's (mult uses ok)

sim: ** starting functional simulation **

sim: ** simulation statistics **
sim_num_insn                  27387 # total number of instructions executed
sim_num_refs                   4814 # total number of loads and stores executed
sim_elapsed_time                  1 # total simulation time in seconds
sim_inst_rate            27387.0000 # simulation speed (in insts/sec)

sim_num_insn_by_pc     # total number of instructions executed (by text address)
sim_num_insn_by_pc.count = 890
sim_num_insn_by_pc.total = 27386
sim_num_insn_by_pc.imin = 0x400140
sim_num_insn_by_pc.imax = 0x405a60
sim_num_insn_by_pc.average =  30.7708
sim_num_insn_by_pc.std_dev = 164.4351
sim_num_insn_by_pc.overflows = 0
# pdf == prob dist fn, cdf == cumulative dist fn
#          index      count    pdf 
sim_num_insn_by_pc.start_dist
0x400140 1 0.00
0x400148 1 0.00
0x400150 1 0.00
0x400158 1 0.00
0x400160 1 0.00
0x400168 1 0.00
0x400170 1 0.00
0x400178 1 0.00
0x400180 1 0.00
0x400188 1 0.00
0x400190 1 0.00
0x400198 1 0.00
0x4001a0 1 0.00
0x4001a8 1 0.00
0x4001b0 1 0.00
0x4001b8 1 0.00
0x4001c0 1 0.00
0x4001c8 1 0.00
0x4001d0 1 0.00
0x4001d8 1 0.00
0x4001e0 1 0.00
0x4001f0 256 0.93
0x4001f8 256 0.93
0x400200 256 0.93
0x400208 2048 7.48
0x400210 2048 7.48
0x400218 1024 3.74
0x400220 1024 3.74
0x400228 1024 3.74
0x400230 1024 3.74
0x400238 2048 7.48
0x400240 2048 7.48
0x400248 256 0.93
0x400250 256 0.93
0x400258 2 0.01
0x400260 2 0.01
0x400268 2 0.01
0x400270 2 0.01
0x400278 2 0.01
0x400280 2 0.01
0x400288 2 0.01
0x400290 2 0.01
0x400298 2 0.01
0x4002a0 2 0.01
0x4002a8 2 0.01
0x4002b0 2 0.01
0x4002b8 2 0.01
0x4002c0 2 0.01
0x4002c8 1 0.00
0x4002d0 1 0.00
0x4002d8 1 0.00
0x4002e0 1 0.00
0x4002e8 1 0.00
0x4002f0 256 0.93
0x4002f8 256 0.93
0x400300 256 0.93
0x400308 256 0.93
0x400310 256 0.93
0x400318 256 0.93
0x400320 256 0.93
0x400328 256 0.93
0x400330 256 0.93
0x400338 256 0.93
0x400340 256 0.93
0x400348 256 0.93
0x400350 256 0.93
0x400358 256 0.93
0x400360 256 0.93
0x400368 256 0.93
0x400370 256 0.93
0x400378 256 0.93
0x400380 256 0.93
0x400388 256 0.93
0x400390 256 0.93
0x400398 256 0.93
0x4003a0 256 0.93
0x4003a8 256 0.93
0x4003b0 256 0.93
0x4003b8 2 0.01
0x4003c0 2 0.01
0x4003c8 2 0.01
0x4003d0 2 0.01
0x4003d8 2 0.01
0x400438 2 0.01
0x400440 2 0.01
0x400448 2 0.01
0x400450 2 0.01
0x400458 2 0.01
0x400460 82 0.30
0x4004a8 82 0.30
0x4004b0 82 0.30
0x4004b8 82 0.30
0x4004c0 82 0.30
0x4004c8 82 0.30
0x4004d0 82 0.30
0x4004d8 82 0.30
0x4004e0 82 0.30
0x4004e8 82 0.30
0x4004f0 82 0.30
0x4004f8 82 0.30
0x400500 82 0.30
0x400508 82 0.30
0x400510 82 0.30
0x400518 82 0.30
0x400520 82 0.30
0x400528 2 0.01
0x400530 2 0.01
0x400538 2 0.01
0x400598 2 0.01
0x4005a0 2 0.01
0x4005a8 2 0.01
0x4005b0 2 0.01
0x4005b8 2 0.01
0x4005c0 2 0.01
0x4005c8 2 0.01
0x4005d0 2 0.01
0x4005d8 2 0.01
0x4005e0 2 0.01
0x4005e8 1 0.00
0x4005f0 1 0.00
0x4005f8 1 0.00
0x400600 1 0.00
0x400608 1 0.00
0x400610 1 0.00
0x400618 1 0.00
0x400620 1 0.00
0x400628 1 0.00
0x400630 1 0.00
0x400638 1 0.00
0x400640 1 0.00
0x400648 1 0.00
0x400650 1 0.00
0x400658 1 0.00
0x400660 1 0.00
0x400668 1 0.00
0x400670 1 0.00
0x400678 1 0.00
0x400680 1 0.00
0x400688 1 0.00
0x400690 1 0.00
0x400698 1 0.00
0x4006a0 1 0.00
0x4006a8 1 0.00
0x4006b0 1 0.00
0x4006b8 1 0.00
0x4006c0 1 0.00
0x4006c8 1 0.00
0x4006d0 1 0.00
0x4006d8 1 0.00
0x4006e0 1 0.00
0x4006e8 1 0.00
0x4006f0 1 0.00
0x4006f8 1 0.00
0x400700 1 0.00
0x400708 1 0.00
0x400710 1 0.00
0x400718 1 0.00
0x400720 1 0.00
0x400728 1 0.00
0x400730 1 0.00
0x400738 1 0.00
0x400740 1 0.00
0x400748 1 0.00
0x400750 1 0.00
0x400800 1 0.00
0x400808 1 0.00
0x400810 1 0.00
0x400818 1 0.00
0x400820 1 0.00
0x400870 1 0.00
0x400878 1 0.00
0x400880 1 0.00
0x400888 1 0.00
0x400890 1 0.00
0x400898 1 0.00
0x4008a0 1 0.00
0x4008a8 1 0.00
0x4008b0 1 0.00
0x4008b8 1 0.00
0x4008c0 1 0.00
0x4008c8 1 0.00
0x4008d8 1 0.00
0x4008e0 1 0.00
0x4008e8 1 0.00
0x4008f0 1 0.00
0x4008f8 1 0.00
0x400b10 1 0.00
0x400b18 1 0.00
0x400b20 1 0.00
0x400b28 1 0.00
0x400b30 1 0.00
0x400b38 1 0.00
0x400b40 1 0.00
0x400b60 1 0.00
0x400b80 1 0.00
0x400b88 1 0.00
0x400b90 1 0.00
0x400b98 1 0.00
0x400ba0 1 0.00
0x400ba8 1 0.00
0x400bc8 1 0.00
0x400bd0 1 0.00
0x400bd8 1 0.00
0x400be0 1 0.00
0x400c00 1 0.00
0x400c08 1 0.00
0x400c10 1 0.00
0x400c18 1 0.00
0x400c20 1 0.00
0x400c28 1 0.00
0x400c30 1 0.00
0x400c38 1 0.00
0x400c40 1 0.00
0x400c48 1 0.00
0x400c50 1 0.00
0x400c58 1 0.00
0x400c60 1 0.00
0x400c68 1 0.00
0x400c70 1 0.00
0x400c78 1 0.00
0x400c80 1 0.00
0x400c88 1 0.00
0x400c90 1 0.00
0x400c98 1 0.00
0x400ca0 1 0.00
0x400ca8 1 0.00
0x400cb0 1 0.00
0x400cb8 1 0.00
0x400cc8 1 0.00
0x400cd0 1 0.00
0x400cd8 1 0.00
0x400ce0 1 0.00
0x400ce8 1 0.00
0x400cf0 1 0.00
0x400cf8 1 0.00
0x400d00 1 0.00
0x400d08 1 0.00
0x400d10 1 0.00
0x400d18 1 0.00
0x400d20 1 0.00
0x400d28 1 0.00
0x400d30 1 0.00
0x400d38 1 0.00
0x400d40 1 0.00
0x400d48 1 0.00
0x400d50 1 0.00
0x400d58 1 0.00
0x400d60 1 0.00
0x400d68 1 0.00
0x400d70 1 0.00
0x400d78 1 0.00
0x400d80 1 0.00
0x400d88 1 0.00
0x400d98 1 0.00
0x400da0 1 0.00
0x400da8 1 0.00
0x400db0 1 0.00
0x400db8 1 0.00
0x400dc0 1 0.00
0x400dc8 1 0.00
0x400dd0 1 0.00
0x400dd8 1 0.00
0x400de0 1 0.00
0x400de8 1 0.00
0x400df0 1 0.00
0x400df8 1 0.00
0x400e00 1 0.00
0x400e08 1 0.00
0x400e10 1 0.00
0x400e18 1 0.00
0x400e48 1 0.00
0x400e50 1 0.00
0x400e60 1 0.00
0x400e68 1 0.00
0x400e80 1 0.00
0x400e88 1 0.00
0x400e90 1 0.00
0x400e98 1 0.00
0x400ea8 1 0.00
0x400eb0 1 0.00
0x400eb8 1 0.00
0x400ec0 1 0.00
0x400ec8 1 0.00
0x401150 1 0.00
0x401158 1 0.00
0x401160 1 0.00
0x401168 1 0.00
0x401178 1 0.00
0x401180 1 0.00
0x401188 1 0.00
0x401190 1 0.00
0x401198 1 0.00
0x4011a0 1 0.00
0x4011a8 1 0.00
0x4011b0 1 0.00
0x4011b8 1 0.00
0x4011c0 1 0.00
0x4011c8 1 0.00
0x4011d0 1 0.00
0x4011d8 1 0.00
0x4011e0 1 0.00
0x4011e8 1 0.00
0x4011f0 1 0.00
0x4011f8 1 0.00
0x401200 1 0.00
0x401208 1 0.00
0x401210 1 0.00
0x401218 1 0.00
0x401220 1 0.00
0x401238 1 0.00
0x401240 1 0.00
0x401248 1 0.00
0x401250 1 0.00
0x401258 1 0.00
0x401260 1 0.00
0x401270 1 0.00
0x401278 1 0.00
0x401610 1 0.00
0x401618 1 0.00
0x401620 1 0.00
0x401628 1 0.00
0x401630 1 0.00
0x401638 1 0.00
0x401640 1 0.00
0x401648 1 0.00
0x401650 1 0.00
0x401658 1 0.00
0x401660 1 0.00
0x401668 1 0.00
0x401670 1 0.00
0x401678 1 0.00
0x401680 1 0.00
0x401688 1 0.00
0x401690 1 0.00
0x401698 1 0.00
0x4016a0 1 0.00
0x4016a8 1 0.00
0x4016b0 1 0.00
0x4016b8 1 0.00
0x4016c0 1 0.00
0x4016c8 1 0.00
0x4016d0 1 0.00
0x4016d8 1 0.00
0x4017c0 1 0.00
0x4017c8 1 0.00
0x4017d0 1 0.00
0x4017d8 1 0.00
0x4017e0 1 0.00
0x4017e8 1 0.00
0x4017f0 1 0.00
0x401800 1 0.00
0x401808 1 0.00
0x401810 1 0.00
0x401818 1 0.00
0x401820 1 0.00
0x401828 1 0.00
0x401830 1 0.00
0x401838 1 0.00
0x401840 1 0.00
0x401848 1 0.00
0x401850 1 0.00
0x401858 1 0.00
0x401860 1 0.00
0x401868 1 0.00
0x401870 1 0.00
0x401878 1 0.00
0x401880 1 0.00
0x401b18 1 0.00
0x401b20 1 0.00
0x401b28 1 0.00
0x401b30 1 0.00
0x401b38 1 0.00
0x401b40 1 0.00
0x401b48 1 0.00
0x401b50 1 0.00
0x401b60 4 0.01
0x401b68 4 0.01
0x401b70 4 0.01
0x401b78 4 0.01
0x401b80 4 0.01
0x401b88 4 0.01
0x401b90 4 0.01
0x401b98 1 0.00
0x401ba0 1 0.00
0x401ba8 1 0.00
0x401bb0 1 0.00
0x401bb8 1 0.00
0x401bc0 1 0.00
0x401bc8 3 0.01
0x401bd0 3 0.01
0x401be8 3 0.01
0x401bf0 3 0.01
0x401bf8 3 0.01
0x401c00 3 0.01
0x401c08 3 0.01
0x401c10 3 0.01
0x401c18 1 0.00
0x401c20 1 0.00
0x401c28 3 0.01
0x401c30 3 0.01
0x401c38 3 0.01
0x401c40 3 0.01
0x401c58 3 0.01
0x401c60 3 0.01
0x401c68 3 0.01
0x401c70 3 0.01
0x401c98 3 0.01
0x401ca0 3 0.01
0x401ca8 3 0.01
0x401cb0 2 0.01
0x401cb8 2 0.01
0x401cc0 2 0.01
0x401cc8 2 0.01
0x401cd0 2 0.01
0x401ce8 3 0.01
0x401cf0 3 0.01
0x401cf8 1 0.00
0x401d00 1 0.00
0x401d08 1 0.00
0x401d10 1 0.00
0x401d18 3 0.01
0x401d20 3 0.01
0x401d28 2 0.01
0x401d30 2 0.01
0x401d38 2 0.01
0x401d40 2 0.01
0x401d48 1 0.00
0x401d50 1 0.00
0x401d58 1 0.00
0x401d60 1 0.00
0x401d68 1 0.00
0x401d88 1 0.00
0x401d90 3 0.01
0x401d98 3 0.01
0x401da0 3 0.01
0x401da8 4 0.01
0x401db0 4 0.01
0x401db8 4 0.01
0x401dc0 4 0.01
0x401dc8 4 0.01
0x401dd0 4 0.01
0x401e00 1 0.00
0x401e08 1 0.00
0x401e10 1 0.00
0x401e18 1 0.00
0x401e50 1 0.00
0x401e58 1 0.00
0x401e60 1 0.00
0x401e68 1 0.00
0x401e70 1 0.00
0x401e78 1 0.00
0x401e80 1 0.00
0x401e88 1 0.00
0x401e90 1 0.00
0x401e98 1 0.00
0x401ea0 1 0.00
0x401ea8 1 0.00
0x401eb0 1 0.00
0x401eb8 1 0.00
0x401ef0 1 0.00
0x401ef8 1 0.00
0x401f00 1 0.00
0x401f08 1 0.00
0x401f10 1 0.00
0x401f18 1 0.00
0x401f20 1 0.00
0x401f28 1 0.00
0x401f30 1 0.00
0x401f38 1 0.00
0x401f40 1 0.00
0x401f48 1 0.00
0x401f50 1 0.00
0x401f58 1 0.00
0x401f60 1 0.00
0x401f68 1 0.00
0x401f70 1 0.00
0x401f88 1 0.00
0x401f90 1 0.00
0x401f98 1 0.00
0x401fa0 3 0.01
0x401fa8 3 0.01
0x401fb0 3 0.01
0x401fb8 3 0.01
0x401fc0 3 0.01
0x401fc8 3 0.01
0x401fd0 3 0.01
0x401fd8 3 0.01
0x401fe0 3 0.01
0x401fe8 3 0.01
0x401ff0 4 0.01
0x401ff8 4 0.01
0x402000 4 0.01
0x402008 4 0.01
0x402010 4 0.01
0x402018 4 0.01
0x402020 4 0.01
0x402028 4 0.01
0x402030 4 0.01
0x402038 4 0.01
0x402068 4 0.01
0x402070 4 0.01
0x402078 4 0.01
0x402080 390 1.42
0x402088 390 1.42
0x402090 390 1.42
0x402098 390 1.42
0x4020a0 390 1.42
0x4020a8 390 1.42
0x4020b0 390 1.42
0x4020b8 390 1.42
0x4020c0 390 1.42
0x4020c8 390 1.42
0x4020d0 390 1.42
0x4020d8 390 1.42
0x4020e0 4 0.01
0x4020e8 4 0.01
0x4020f0 4 0.01
0x4020f8 12 0.04
0x402100 12 0.04
0x402108 12 0.04
0x402110 12 0.04
0x402118 4 0.01
0x402120 4 0.01
0x402148 4 0.01
0x402150 4 0.01
0x402320 1 0.00
0x402328 1 0.00
0x402330 1 0.00
0x402338 1 0.00
0x402340 1 0.00
0x402348 1 0.00
0x402350 1 0.00
0x402358 1 0.00
0x402360 1 0.00
0x402368 1 0.00
0x402378 1 0.00
0x402380 1 0.00
0x402388 1 0.00
0x402390 1 0.00
0x402398 1 0.00
0x4023a0 1 0.00
0x4023a8 1 0.00
0x4023b0 1 0.00
0x4023b8 1 0.00
0x4023c0 1 0.00
0x4023c8 1 0.00
0x4023d0 1 0.00
0x4023d8 1 0.00
0x4023e0 1 0.00
0x4023e8 1 0.00
0x4023f0 1 0.00
0x4023f8 1 0.00
0x402400 1 0.00
0x402408 1 0.00
0x402410 1 0.00
0x402418 1 0.00
0x402420 1 0.00
0x402428 1 0.00
0x402430 1 0.00
0x402438 1 0.00
0x402488 1 0.00
0x402490 1 0.00
0x402498 1 0.00
0x4024a0 1 0.00
0x4024a8 1 0.00
0x4024b0 1 0.00
0x4024b8 1 0.00
0x4024d0 1 0.00
0x4024d8 1 0.00
0x4024e0 1 0.00
0x4024e8 1 0.00
0x4024f0 1 0.00
0x4024f8 1 0.00
0x402500 1 0.00
0x402508 1 0.00
0x402510 1 0.00
0x402518 1 0.00
0x402520 1 0.00
0x402528 1 0.00
0x402530 1 0.00
0x402580 1 0.00
0x402588 1 0.00
0x402590 1 0.00
0x402598 1 0.00
0x4025a0 1 0.00
0x4025a8 1 0.00
0x4025b0 1 0.00
0x4025b8 1 0.00
0x4025c0 1 0.00
0x4025c8 1 0.00
0x4025d0 1 0.00
0x4025d8 1 0.00
0x4025e0 1 0.00
0x4025e8 1 0.00
0x4025f0 1 0.00
0x4025f8 1 0.00
0x402600 1 0.00
0x402608 1 0.00
0x402610 1 0.00
0x402618 1 0.00
0x402620 1 0.00
0x402628 1 0.00
0x402630 1 0.00
0x402638 1 0.00
0x402640 1 0.00
0x402648 1 0.00
0x402650 1 0.00
0x402658 1 0.00
0x402710 1 0.00
0x402718 1 0.00
0x402720 1 0.00
0x402728 1 0.00
0x402730 1 0.00
0x402880 1 0.00
0x402888 1 0.00
0x402b98 1 0.00
0x402ba0 1 0.00
0x402ba8 1 0.00
0x402bb0 1 0.00
0x402bb8 1 0.00
0x402bc0 1 0.00
0x402bc8 1 0.00
0x402bd0 1 0.00
0x402bd8 1 0.00
0x402be0 1 0.00
0x402be8 1 0.00
0x402bf0 1 0.00
0x402c18 1 0.00
0x402c20 1 0.00
0x402c50 1 0.00
0x402c58 1 0.00
0x402c60 1 0.00
0x402c68 1 0.00
0x403098 2 0.01
0x4030a0 2 0.01
0x4030a8 2 0.01
0x4030b0 2 0.01
0x4030b8 2 0.01
0x4030c0 2 0.01
0x4030c8 2 0.01
0x4030d0 2 0.01
0x4030d8 2 0.01
0x4030e0 2 0.01
0x4030e8 2 0.01
0x4030f0 2 0.01
0x4030f8 2 0.01
0x403100 2 0.01
0x403108 2 0.01
0x403110 2 0.01
0x403118 2 0.01
0x403120 2 0.01
0x403128 2 0.01
0x403130 2 0.01
0x403138 2 0.01
0x403140 2 0.01
0x403148 2 0.01
0x403150 2 0.01
0x403158 2 0.01
0x403160 2 0.01
0x403168 2 0.01
0x403170 2 0.01
0x403328 2 0.01
0x403330 2 0.01
0x403338 1 0.00
0x403340 1 0.00
0x403348 1 0.00
0x403350 1 0.00
0x403358 1 0.00
0x403360 1 0.00
0x403368 1 0.00
0x4033d0 2 0.01
0x4033d8 2 0.01
0x4033e0 2 0.01
0x4033e8 2 0.01
0x403420 2 0.01
0x403428 2 0.01
0x403430 2 0.01
0x403438 2 0.01
0x403440 2 0.01
0x403448 2 0.01
0x403450 2 0.01
0x403458 2 0.01
0x403460 2 0.01
0x403468 2 0.01
0x403470 2 0.01
0x403770 2 0.01
0x403778 2 0.01
0x403780 2 0.01
0x403788 2 0.01
0x403790 2 0.01
0x403798 2 0.01
0x4037a0 2 0.01
0x4037a8 2 0.01
0x4037b0 2 0.01
0x4037c8 2 0.01
0x4037d0 2 0.01
0x4037d8 2 0.01
0x4037e0 2 0.01
0x4037e8 2 0.01
0x4037f0 2 0.01
0x4037f8 2 0.01
0x403800 2 0.01
0x403808 2 0.01
0x403810 2 0.01
0x403818 2 0.01
0x403cb0 2 0.01
0x403cb8 2 0.01
0x403cc0 2 0.01
0x403cc8 2 0.01
0x403cd0 2 0.01
0x403cd8 2 0.01
0x403ce0 2 0.01
0x403ce8 2 0.01
0x403cf0 2 0.01
0x403cf8 2 0.01
0x403d00 2 0.01
0x403d08 2 0.01
0x403d10 2 0.01
0x403d18 2 0.01
0x403d20 2 0.01
0x403d38 2 0.01
0x403d40 2 0.01
0x403d48 2 0.01
0x403d50 2 0.01
0x403d58 2 0.01
0x403d60 2 0.01
0x403d68 2 0.01
0x403d90 2 0.01
0x403d98 2 0.01
0x403da0 2 0.01
0x403da8 2 0.01
0x403db0 2 0.01
0x403de8 2 0.01
0x403df0 2 0.01
0x403df8 2 0.01
0x403e00 2 0.01
0x403e08 2 0.01
0x403e10 2 0.01
0x403e18 2 0.01
0x403e20 2 0.01
0x403e28 2 0.01
0x403e30 2 0.01
0x403e38 2 0.01
0x403e40 2 0.01
0x403e48 2 0.01
0x403e50 2 0.01
0x403e58 2 0.01
0x403e60 2 0.01
0x403e68 2 0.01
0x403e70 2 0.01
0x403e78 2 0.01
0x403e80 2 0.01
0x403e88 2 0.01
0x403e90 2 0.01
0x403e98 2 0.01
0x403ea0 2 0.01
0x403ea8 2 0.01
0x403eb0 2 0.01
0x403eb8 2 0.01
0x403ec0 2 0.01
0x403ec8 2 0.01
0x403ed0 2 0.01
0x403ed8 1 0.00
0x403ee0 1 0.00
0x403ef8 1 0.00
0x403f00 1 0.00
0x403f08 1 0.00
0x403f10 1 0.00
0x403f18 1 0.00
0x403f20 1 0.00
0x403f28 1 0.00
0x403f60 1 0.00
0x403f68 1 0.00
0x403f70 1 0.00
0x403f98 2 0.01
0x403fa0 2 0.01
0x403fa8 2 0.01
0x403fb0 2 0.01
0x403fb8 2 0.01
0x403fc0 2 0.01
0x403fc8 2 0.01
0x403fd0 2 0.01
0x403fd8 2 0.01
0x404008 2 0.01
0x4040d0 2 0.01
0x4040d8 2 0.01
0x4040e0 2 0.01
0x404108 2 0.01
0x404110 2 0.01
0x404120 2 0.01
0x404128 2 0.01
0x404130 2 0.01
0x404138 2 0.01
0x404140 2 0.01
0x404148 2 0.01
0x404178 2 0.01
0x404180 2 0.01
0x404188 2 0.01
0x404190 2 0.01
0x4041a8 2 0.01
0x4041b0 2 0.01
0x4041b8 2 0.01
0x4041c0 2 0.01
0x4041c8 2 0.01
0x4041d0 2 0.01
0x4041d8 2 0.01
0x4041e0 2 0.01
0x404778 3 0.01
0x404780 3 0.01
0x404788 3 0.01
0x404790 3 0.01
0x404798 3 0.01
0x4047a0 3 0.01
0x4047a8 3 0.01
0x4047b0 3 0.01
0x4047b8 3 0.01
0x4047c0 3 0.01
0x4047c8 3 0.01
0x4047d0 3 0.01
0x4047d8 3 0.01
0x4047e0 3 0.01
0x4047e8 3 0.01
0x404990 2 0.01
0x404998 2 0.01
0x4049a0 2 0.01
0x4049a8 2 0.01
0x4049b0 2 0.01
0x4049b8 2 0.01
0x404e30 3 0.01
0x404e38 3 0.01
0x404e40 3 0.01
0x404e48 3 0.01
0x404e60 3 0.01
0x404e68 3 0.01
0x404e70 3 0.01
0x404e78 3 0.01
0x404e80 3 0.01
0x404e88 3 0.01
0x404e90 3 0.01
0x404e98 3 0.01
0x404ea0 3 0.01
0x404ea8 3 0.01
0x404eb0 3 0.01
0x405710 2 0.01
0x405718 2 0.01
0x405720 2 0.01
0x405728 2 0.01
0x405730 2 0.01
0x405738 2 0.01
0x405740 2 0.01
0x405748 2 0.01
0x405750 2 0.01
0x405758 2 0.01
0x405760 2 0.01
0x405768 1 0.00
0x405770 1 0.00
0x405778 1 0.00
0x405780 1 0.00
0x405788 1 0.00
0x405790 1 0.00
0x405798 1 0.00
0x4057a0 1 0.00
0x4057c8 1 0.00
0x4057d0 1 0.00
0x405810 1 0.00
0x405818 1 0.00
0x405820 2 0.01
0x405828 2 0.01
0x405830 2 0.01
0x405838 2 0.01
0x405840 2 0.01
0x405920 2 0.01
0x405928 2 0.01
0x405930 2 0.01
0x405938 2 0.01
0x405940 2 0.01
0x4059d0 3 0.01
0x4059d8 3 0.01
0x4059e0 3 0.01
0x4059f0 3 0.01
0x4059f8 3 0.01
0x405a00 3 0.01
0x405a08 3 0.01
0x405a10 3 0.01
0x405a18 3 0.01
0x405a40 1 0.00
0x405a48 1 0.00
0x405a50 1 0.00
0x405a58 1 0.00
0x405a60 1 0.00
sim_num_insn_by_pc.end_dist

ld_text_base             0x00400000 # program text (code) segment base
ld_text_size                  23456 # program text (code) size in bytes
ld_data_base             0x10000000 # program initialized data segment base
ld_data_size                   4096 # program init'ed `.data' and uninit'ed `.bss' size in bytes
ld_stack_base            0x7fffc000 # program stack segment base (highest address in stack)
ld_stack_size                 16384 # program initial stack size
ld_prog_entry            0x00400140 # program entry point (initial PC)
ld_environ_base          0x7fff8000 # program environment base address address
ld_target_big_endian              0 # target executable endian-ness, non-zero if big endian
mem.page_count                   12 # total number of pages allocated
mem.page_mem                    48k # total size of memory pages allocated
mem.ptab_misses                  12 # total first level page table misses
mem.ptab_accesses            268044 # total page table accesses
mem.ptab_miss_rate           0.0000 # first level page table miss rate

+--------------------------------------------------------------+
| effective code range:         [0, fffffff8]                  |
| effective bpred count:        0                              |
| effective sim cycles:         0                              |
| effective bpred misses:       0                              |
| effective icache misses:      0                              |
+--------------------------------------------------------------+

