sim-profile: SimpleScalar/PISA Tool Set version 3.0 of August, 2003.
Copyright (c) 1994-2003 by Todd M. Austin, Ph.D. and SimpleScalar, LLC.
All Rights Reserved. This version of SimpleScalar is licensed for academic
non-commercial use.  No portion of this work may be used by any commercial
entity, or for any commercial purpose, without the prior written permission
of SimpleScalar, LLC (info@simplescalar.com).

sim: command line: /home/sudiptac/sudiptac/Work/simplesim-3.0/sim-profile -pcstat sim_num_insn ce_matmult 

sim: simulation started @ Thu Mar 18 00:27:19 2010, options follow:

sim-profile: This simulator implements a functional simulator with
profiling support.  Run with the `-h' flag to see profiling options
available.

# -config                     # load configuration from a file
# -dumpconfig                 # dump configuration to a file
# -h                    false # print help message    
# -v                    false # verbose operation     
# -d                    false # enable debug message  
# -i                    false # start in Dlite debugger
-seed                       1 # random number generator seed (0 for timer seed)
# -q                    false # initialize and terminate immediately
# -chkpt               <null> # restore EIO trace execution from <fname>
# -redir:sim           <null> # redirect simulator output to file (non-interactive only)
# -redir:prog          <null> # redirect simulated program output to file
-nice                       0 # simulator scheduling priority
-max:inst                   0 # maximum number of inst's to execute
-all                    false # enable all profile options
-iclass                 false # enable instruction class profiling
-iprof                  false # enable instruction profiling
-brprof                 false # enable branch instruction profiling
-amprof                 false # enable address mode profiling
-segprof                false # enable load/store address segment profiling
-tsymprof               false # enable text symbol profiling
-taddrprof              false # enable text address profiling
-dsymprof               false # enable data symbol profiling
-internal               false # include compiler-internal symbols during symbol profiling
# -pcstat        sim_num_insn # profile stat(s) against text addr's (mult uses ok)

sim: ** starting functional simulation **

sim: ** simulation statistics **
sim_num_insn                 651190 # total number of instructions executed
sim_num_refs                 166358 # total number of loads and stores executed
sim_elapsed_time                  1 # total simulation time in seconds
sim_inst_rate           651190.0000 # simulation speed (in insts/sec)

sim_num_insn_by_pc     # total number of instructions executed (by text address)
sim_num_insn_by_pc.count = 1095
sim_num_insn_by_pc.total = 651189
sim_num_insn_by_pc.imin = 0x400140
sim_num_insn_by_pc.imax = 0x405ff0
sim_num_insn_by_pc.average = 594.6932
sim_num_insn_by_pc.std_dev = 3730.2266
sim_num_insn_by_pc.overflows = 0
# pdf == prob dist fn, cdf == cumulative dist fn
#          index      count    pdf 
sim_num_insn_by_pc.start_dist
0x400140 1 0.00
0x400148 1 0.00
0x400150 1 0.00
0x400158 1 0.00
0x400160 1 0.00
0x400168 1 0.00
0x400170 1 0.00
0x400178 1 0.00
0x400180 1 0.00
0x400188 1 0.00
0x400190 1 0.00
0x400198 1 0.00
0x4001a0 1 0.00
0x4001a8 1 0.00
0x4001b0 1 0.00
0x4001b8 1 0.00
0x4001c0 1 0.00
0x4001c8 1 0.00
0x4001d0 1 0.00
0x4001d8 1 0.00
0x4001e0 1 0.00
0x4001f0 1 0.00
0x4001f8 1 0.00
0x400200 1 0.00
0x400208 1 0.00
0x400210 1 0.00
0x400218 1 0.00
0x400220 1 0.00
0x400228 1 0.00
0x400230 1 0.00
0x400238 1 0.00
0x400240 1 0.00
0x400248 1 0.00
0x400250 1 0.00
0x400258 32 0.00
0x400260 32 0.00
0x400268 32 0.00
0x400270 32 0.00
0x400278 1024 0.16
0x400280 1024 0.16
0x400288 1024 0.16
0x400290 1024 0.16
0x400298 1024 0.16
0x4002a0 32 0.00
0x4002a8 32 0.00
0x4002b0 32 0.00
0x4002b8 32 0.00
0x4002c0 1 0.00
0x4002c8 1 0.00
0x4002d0 1 0.00
0x4002d8 32 0.00
0x4002e0 32 0.00
0x4002e8 32 0.00
0x4002f0 1024 0.16
0x4002f8 1024 0.16
0x400300 1024 0.16
0x400308 1024 0.16
0x400310 1024 0.16
0x400318 32 0.00
0x400320 32 0.00
0x400328 32 0.00
0x400330 32 0.00
0x400338 1 0.00
0x400340 1 0.00
0x400348 1 0.00
0x400350 32 0.00
0x400358 32 0.00
0x400360 1024 0.16
0x400368 1024 0.16
0x400370 1024 0.16
0x400378 1024 0.16
0x400380 32 0.00
0x400388 32 0.00
0x400390 32 0.00
0x400398 32 0.00
0x4003a0 1 0.00
0x4003a8 1 0.00
0x4003b0 1 0.00
0x4003b8 1 0.00
0x4003c0 1 0.00
0x4003c8 1 0.00
0x4003d0 1 0.00
0x4003d8 1 0.00
0x4003e0 1 0.00
0x4003e8 4 0.00
0x4003f0 4 0.00
0x4003f8 4 0.00
0x400400 4 0.00
0x400408 16 0.00
0x400410 16 0.00
0x400418 16 0.00
0x400420 16 0.00
0x400428 16 0.00
0x400430 16 0.00
0x400438 128 0.02
0x400440 128 0.02
0x400448 128 0.02
0x400450 128 0.02
0x400458 128 0.02
0x400460 128 0.02
0x400468 128 0.02
0x400470 8 0.00
0x400478 8 0.00
0x400488 8 0.00
0x400490 8 0.00
0x400498 64 0.01
0x4004a0 64 0.01
0x4004a8 64 0.01
0x4004b0 64 0.01
0x4004b8 64 0.01
0x4004c0 64 0.01
0x4004c8 64 0.01
0x4004d0 64 0.01
0x4004d8 64 0.01
0x4004e0 64 0.01
0x4004e8 8 0.00
0x4004f0 8 0.00
0x4004f8 64 0.01
0x400500 64 0.01
0x400508 64 0.01
0x400510 64 0.01
0x400518 64 0.01
0x400520 64 0.01
0x400528 64 0.01
0x400530 64 0.01
0x400538 64 0.01
0x400540 64 0.01
0x400548 8 0.00
0x400550 120 0.02
0x400558 120 0.02
0x400560 120 0.02
0x400568 960 0.15
0x400570 960 0.15
0x400578 960 0.15
0x400580 960 0.15
0x400588 960 0.15
0x400590 960 0.15
0x400598 960 0.15
0x4005a0 960 0.15
0x4005a8 960 0.15
0x4005b0 128 0.02
0x4005b8 128 0.02
0x4005c0 128 0.02
0x4005c8 128 0.02
0x4005d0 128 0.02
0x4005d8 16 0.00
0x4005e0 16 0.00
0x4005e8 16 0.00
0x4005f0 16 0.00
0x4005f8 16 0.00
0x400600 16 0.00
0x400608 16 0.00
0x400610 16 0.00
0x400618 16 0.00
0x400620 16 0.00
0x400628 16 0.00
0x400630 16 0.00
0x400638 16 0.00
0x400640 16 0.00
0x400648 16 0.00
0x400650 16 0.00
0x400658 16 0.00
0x400660 16 0.00
0x400668 16 0.00
0x400670 16 0.00
0x400678 512 0.08
0x400680 512 0.08
0x400688 512 0.08
0x400690 512 0.08
0x400698 512 0.08
0x4006a0 512 0.08
0x4006a8 16 0.00
0x4006b0 16 0.00
0x4006c0 16 0.00
0x4006c8 16 0.00
0x4006d0 128 0.02
0x4006d8 128 0.02
0x4006e0 128 0.02
0x4006e8 128 0.02
0x4006f0 128 0.02
0x4006f8 128 0.02
0x400700 128 0.02
0x400708 128 0.02
0x400710 128 0.02
0x400718 128 0.02
0x400720 128 0.02
0x400728 128 0.02
0x400730 16 0.00
0x400738 16 0.00
0x400740 128 0.02
0x400748 128 0.02
0x400750 128 0.02
0x400758 128 0.02
0x400760 128 0.02
0x400768 128 0.02
0x400770 128 0.02
0x400778 128 0.02
0x400780 128 0.02
0x400788 16 0.00
0x400790 496 0.08
0x400798 496 0.08
0x4007a0 496 0.08
0x4007a8 3968 0.61
0x4007b0 3968 0.61
0x4007b8 3968 0.61
0x4007c0 3968 0.61
0x4007c8 3968 0.61
0x4007d0 3968 0.61
0x4007d8 3968 0.61
0x4007e0 3968 0.61
0x4007e8 3968 0.61
0x4007f0 3968 0.61
0x4007f8 512 0.08
0x400800 512 0.08
0x400808 512 0.08
0x400810 16 0.00
0x400818 16 0.00
0x400828 16 0.00
0x400830 16 0.00
0x400838 128 0.02
0x400840 128 0.02
0x400848 128 0.02
0x400850 128 0.02
0x400858 128 0.02
0x400860 128 0.02
0x400868 128 0.02
0x400870 128 0.02
0x400878 128 0.02
0x400880 128 0.02
0x400888 16 0.00
0x400890 16 0.00
0x400898 128 0.02
0x4008a0 128 0.02
0x4008a8 128 0.02
0x4008b0 128 0.02
0x4008b8 128 0.02
0x4008c0 128 0.02
0x4008c8 128 0.02
0x4008d0 128 0.02
0x4008d8 128 0.02
0x4008e0 16 0.00
0x4008e8 496 0.08
0x4008f0 496 0.08
0x4008f8 496 0.08
0x400900 3968 0.61
0x400908 3968 0.61
0x400910 3968 0.61
0x400918 3968 0.61
0x400920 3968 0.61
0x400928 3968 0.61
0x400930 3968 0.61
0x400938 3968 0.61
0x400940 512 0.08
0x400948 512 0.08
0x400950 4096 0.63
0x400958 4096 0.63
0x400960 4096 0.63
0x400968 4096 0.63
0x400970 32768 5.03
0x400978 32768 5.03
0x400980 32768 5.03
0x400988 32768 5.03
0x400990 32768 5.03
0x400998 32768 5.03
0x4009a0 32768 5.03
0x4009a8 32768 5.03
0x4009b0 32768 5.03
0x4009b8 32768 5.03
0x4009c0 32768 5.03
0x4009c8 32768 5.03
0x4009d0 32768 5.03
0x4009d8 32768 5.03
0x4009e0 4096 0.63
0x4009e8 4096 0.63
0x4009f0 4096 0.63
0x4009f8 4096 0.63
0x400a00 512 0.08
0x400a08 512 0.08
0x400a10 512 0.08
0x400a18 16 0.00
0x400a20 16 0.00
0x400a30 16 0.00
0x400a38 16 0.00
0x400a40 128 0.02
0x400a48 128 0.02
0x400a50 128 0.02
0x400a58 128 0.02
0x400a60 128 0.02
0x400a68 128 0.02
0x400a70 128 0.02
0x400a78 128 0.02
0x400a80 128 0.02
0x400a88 16 0.00
0x400a90 16 0.00
0x400a98 128 0.02
0x400aa0 128 0.02
0x400aa8 128 0.02
0x400ab0 128 0.02
0x400ab8 128 0.02
0x400ac0 128 0.02
0x400ac8 128 0.02
0x400ad0 128 0.02
0x400ad8 128 0.02
0x400ae0 128 0.02
0x400ae8 16 0.00
0x400af0 496 0.08
0x400af8 496 0.08
0x400b00 496 0.08
0x400b08 3968 0.61
0x400b10 3968 0.61
0x400b18 3968 0.61
0x400b20 3968 0.61
0x400b28 3968 0.61
0x400b30 3968 0.61
0x400b38 3968 0.61
0x400b40 3968 0.61
0x400b48 512 0.08
0x400b50 512 0.08
0x400b58 512 0.08
0x400b60 512 0.08
0x400b68 512 0.08
0x400b70 512 0.08
0x400b78 512 0.08
0x400b80 16 0.00
0x400b88 16 0.00
0x400b90 16 0.00
0x400b98 16 0.00
0x400ba0 16 0.00
0x400ba8 4 0.00
0x400bb0 4 0.00
0x400bb8 4 0.00
0x400bc0 4 0.00
0x400bc8 4 0.00
0x400bd0 1 0.00
0x400bd8 1 0.00
0x400be0 1 0.00
0x400be8 1 0.00
0x400bf0 1 0.00
0x400bf8 1 0.00
0x400c00 1 0.00
0x400c08 1 0.00
0x400c10 1 0.00
0x400c18 1 0.00
0x400c20 1 0.00
0x400c28 1 0.00
0x400c30 1 0.00
0x400c38 1 0.00
0x400c40 1 0.00
0x400c48 1 0.00
0x400c50 1 0.00
0x400c58 1 0.00
0x400c60 1 0.00
0x400c68 1 0.00
0x400c70 1 0.00
0x400c78 1 0.00
0x400c80 1 0.00
0x400c88 1 0.00
0x400c90 1 0.00
0x400c98 1 0.00
0x400ca0 1 0.00
0x400ca8 1 0.00
0x400cb0 1 0.00
0x400cb8 1 0.00
0x400cc0 1 0.00
0x400cc8 1 0.00
0x400cd0 1 0.00
0x400cd8 1 0.00
0x400ce0 1 0.00
0x400d90 1 0.00
0x400d98 1 0.00
0x400da0 1 0.00
0x400da8 1 0.00
0x400db0 1 0.00
0x400e00 1 0.00
0x400e08 1 0.00
0x400e10 1 0.00
0x400e18 1 0.00
0x400e20 1 0.00
0x400e28 1 0.00
0x400e30 1 0.00
0x400e38 1 0.00
0x400e40 1 0.00
0x400e48 1 0.00
0x400e50 1 0.00
0x400e58 1 0.00
0x400e68 1 0.00
0x400e70 1 0.00
0x400e78 1 0.00
0x400e80 1 0.00
0x400e88 1 0.00
0x4010a0 1 0.00
0x4010a8 1 0.00
0x4010b0 1 0.00
0x4010b8 1 0.00
0x4010c0 1 0.00
0x4010c8 1 0.00
0x4010d0 1 0.00
0x4010f0 1 0.00
0x401110 1 0.00
0x401118 1 0.00
0x401120 1 0.00
0x401128 1 0.00
0x401130 1 0.00
0x401138 1 0.00
0x401158 1 0.00
0x401160 1 0.00
0x401168 1 0.00
0x401170 1 0.00
0x401190 1 0.00
0x401198 1 0.00
0x4011a0 1 0.00
0x4011a8 1 0.00
0x4011b0 1 0.00
0x4011b8 1 0.00
0x4011c0 1 0.00
0x4011c8 1 0.00
0x4011d0 1 0.00
0x4011d8 1 0.00
0x4011e0 1 0.00
0x4011e8 1 0.00
0x4011f0 1 0.00
0x4011f8 1 0.00
0x401200 1 0.00
0x401208 1 0.00
0x401210 1 0.00
0x401218 1 0.00
0x401220 1 0.00
0x401228 1 0.00
0x401230 1 0.00
0x401238 1 0.00
0x401240 1 0.00
0x401248 1 0.00
0x401258 1 0.00
0x401260 1 0.00
0x401268 1 0.00
0x401270 1 0.00
0x401278 1 0.00
0x401280 1 0.00
0x401288 1 0.00
0x401290 1 0.00
0x401298 1 0.00
0x4012a0 1 0.00
0x4012a8 1 0.00
0x4012b0 1 0.00
0x4012b8 1 0.00
0x4012c0 1 0.00
0x4012c8 1 0.00
0x4012d0 1 0.00
0x4012d8 1 0.00
0x4012e0 1 0.00
0x4012e8 1 0.00
0x4012f0 1 0.00
0x4012f8 1 0.00
0x401300 1 0.00
0x401308 1 0.00
0x401310 1 0.00
0x401318 1 0.00
0x401328 1 0.00
0x401330 1 0.00
0x401338 1 0.00
0x401340 1 0.00
0x401348 1 0.00
0x401350 1 0.00
0x401358 1 0.00
0x401360 1 0.00
0x401368 1 0.00
0x401370 1 0.00
0x401378 1 0.00
0x401380 1 0.00
0x401388 1 0.00
0x401390 1 0.00
0x401398 1 0.00
0x4013a0 1 0.00
0x4013a8 1 0.00
0x4013d8 1 0.00
0x4013e0 1 0.00
0x4013f0 1 0.00
0x4013f8 1 0.00
0x401410 1 0.00
0x401418 1 0.00
0x401420 1 0.00
0x401428 1 0.00
0x401438 1 0.00
0x401440 1 0.00
0x401448 1 0.00
0x401450 1 0.00
0x401458 1 0.00
0x4016e0 1 0.00
0x4016e8 1 0.00
0x4016f0 1 0.00
0x4016f8 1 0.00
0x401708 1 0.00
0x401710 1 0.00
0x401718 1 0.00
0x401720 1 0.00
0x401728 1 0.00
0x401730 1 0.00
0x401738 1 0.00
0x401740 1 0.00
0x401748 1 0.00
0x401750 1 0.00
0x401758 1 0.00
0x401760 1 0.00
0x401768 1 0.00
0x401770 1 0.00
0x401778 1 0.00
0x401780 1 0.00
0x401788 1 0.00
0x401790 1 0.00
0x401798 1 0.00
0x4017a0 1 0.00
0x4017a8 1 0.00
0x4017b0 1 0.00
0x4017c8 1 0.00
0x4017d0 1 0.00
0x4017d8 1 0.00
0x4017e0 1 0.00
0x4017e8 1 0.00
0x4017f0 1 0.00
0x401800 1 0.00
0x401808 1 0.00
0x401ba0 1 0.00
0x401ba8 1 0.00
0x401bb0 1 0.00
0x401bb8 1 0.00
0x401bc0 1 0.00
0x401bc8 1 0.00
0x401bd0 1 0.00
0x401bd8 1 0.00
0x401be0 1 0.00
0x401be8 1 0.00
0x401bf0 1 0.00
0x401bf8 1 0.00
0x401c00 1 0.00
0x401c08 1 0.00
0x401c10 1 0.00
0x401c18 1 0.00
0x401c20 1 0.00
0x401c28 1 0.00
0x401c30 1 0.00
0x401c38 1 0.00
0x401c40 1 0.00
0x401c48 1 0.00
0x401c50 1 0.00
0x401c58 1 0.00
0x401c60 1 0.00
0x401c68 1 0.00
0x401d50 1 0.00
0x401d58 1 0.00
0x401d60 1 0.00
0x401d68 1 0.00
0x401d70 1 0.00
0x401d78 1 0.00
0x401d80 1 0.00
0x401d90 1 0.00
0x401d98 1 0.00
0x401da0 1 0.00
0x401da8 1 0.00
0x401db0 1 0.00
0x401db8 1 0.00
0x401dc0 1 0.00
0x401dc8 1 0.00
0x401dd0 1 0.00
0x401dd8 1 0.00
0x401de0 1 0.00
0x401de8 1 0.00
0x401df0 1 0.00
0x401df8 1 0.00
0x401e00 1 0.00
0x401e08 1 0.00
0x401e10 1 0.00
0x4020a8 1 0.00
0x4020b0 1 0.00
0x4020b8 1 0.00
0x4020c0 1 0.00
0x4020c8 1 0.00
0x4020d0 1 0.00
0x4020d8 1 0.00
0x4020e0 1 0.00
0x4020f0 4 0.00
0x4020f8 4 0.00
0x402100 4 0.00
0x402108 4 0.00
0x402110 4 0.00
0x402118 4 0.00
0x402120 4 0.00
0x402128 1 0.00
0x402130 1 0.00
0x402138 1 0.00
0x402140 1 0.00
0x402148 1 0.00
0x402150 1 0.00
0x402158 3 0.00
0x402160 3 0.00
0x402178 3 0.00
0x402180 3 0.00
0x402188 3 0.00
0x402190 3 0.00
0x402198 3 0.00
0x4021a0 3 0.00
0x4021a8 1 0.00
0x4021b0 1 0.00
0x4021b8 3 0.00
0x4021c0 3 0.00
0x4021c8 3 0.00
0x4021d0 3 0.00
0x4021e8 3 0.00
0x4021f0 3 0.00
0x4021f8 3 0.00
0x402200 3 0.00
0x402228 3 0.00
0x402230 3 0.00
0x402238 3 0.00
0x402240 2 0.00
0x402248 2 0.00
0x402250 2 0.00
0x402258 2 0.00
0x402260 2 0.00
0x402278 3 0.00
0x402280 3 0.00
0x402288 1 0.00
0x402290 1 0.00
0x402298 1 0.00
0x4022a0 1 0.00
0x4022a8 3 0.00
0x4022b0 3 0.00
0x4022b8 2 0.00
0x4022c0 2 0.00
0x4022c8 2 0.00
0x4022d0 2 0.00
0x4022d8 1 0.00
0x4022e0 1 0.00
0x4022e8 1 0.00
0x4022f0 1 0.00
0x4022f8 1 0.00
0x402318 1 0.00
0x402320 3 0.00
0x402328 3 0.00
0x402330 3 0.00
0x402338 4 0.00
0x402340 4 0.00
0x402348 4 0.00
0x402350 4 0.00
0x402358 4 0.00
0x402360 4 0.00
0x402390 1 0.00
0x402398 1 0.00
0x4023a0 1 0.00
0x4023a8 1 0.00
0x4023e0 1 0.00
0x4023e8 1 0.00
0x4023f0 1 0.00
0x4023f8 1 0.00
0x402400 1 0.00
0x402408 1 0.00
0x402410 3 0.00
0x402418 3 0.00
0x402420 3 0.00
0x402428 3 0.00
0x402430 3 0.00
0x402438 3 0.00
0x402440 3 0.00
0x402448 3 0.00
0x402450 2 0.00
0x402458 2 0.00
0x402460 2 0.00
0x402468 2 0.00
0x402470 2 0.00
0x402478 2 0.00
0x402480 1 0.00
0x402488 1 0.00
0x402490 1 0.00
0x402498 1 0.00
0x4024a0 1 0.00
0x4024a8 1 0.00
0x4024b0 1 0.00
0x4024b8 1 0.00
0x4024c0 1 0.00
0x4024c8 1 0.00
0x4024d0 1 0.00
0x4024d8 1 0.00
0x402518 1 0.00
0x402520 1 0.00
0x402528 1 0.00
0x402530 3 0.00
0x402538 3 0.00
0x402540 3 0.00
0x402548 3 0.00
0x402550 3 0.00
0x402558 3 0.00
0x402560 3 0.00
0x402568 3 0.00
0x402570 3 0.00
0x402578 3 0.00
0x402580 4 0.00
0x402588 4 0.00
0x402590 4 0.00
0x402598 4 0.00
0x4025a0 4 0.00
0x4025a8 4 0.00
0x4025b0 4 0.00
0x4025b8 4 0.00
0x4025c0 4 0.00
0x4025c8 4 0.00
0x4025f8 4 0.00
0x402600 4 0.00
0x402608 4 0.00
0x402610 390 0.06
0x402618 390 0.06
0x402620 390 0.06
0x402628 390 0.06
0x402630 390 0.06
0x402638 390 0.06
0x402640 390 0.06
0x402648 390 0.06
0x402650 390 0.06
0x402658 390 0.06
0x402660 390 0.06
0x402668 390 0.06
0x402670 4 0.00
0x402678 4 0.00
0x402680 4 0.00
0x402688 12 0.00
0x402690 12 0.00
0x402698 12 0.00
0x4026a0 12 0.00
0x4026a8 4 0.00
0x4026b0 4 0.00
0x4026d8 4 0.00
0x4026e0 4 0.00
0x4028b0 1 0.00
0x4028b8 1 0.00
0x4028c0 1 0.00
0x4028c8 1 0.00
0x4028d0 1 0.00
0x4028d8 1 0.00
0x4028e0 1 0.00
0x4028e8 1 0.00
0x4028f0 1 0.00
0x4028f8 1 0.00
0x402908 1 0.00
0x402910 1 0.00
0x402918 1 0.00
0x402920 1 0.00
0x402928 1 0.00
0x402930 1 0.00
0x402938 1 0.00
0x402940 1 0.00
0x402948 1 0.00
0x402950 1 0.00
0x402958 1 0.00
0x402960 1 0.00
0x402968 1 0.00
0x402970 1 0.00
0x402978 1 0.00
0x402980 1 0.00
0x402988 1 0.00
0x402990 1 0.00
0x402998 1 0.00
0x4029a0 1 0.00
0x4029a8 1 0.00
0x4029b0 1 0.00
0x4029b8 1 0.00
0x4029c0 1 0.00
0x4029c8 1 0.00
0x402a18 1 0.00
0x402a20 1 0.00
0x402a28 1 0.00
0x402a30 1 0.00
0x402a38 1 0.00
0x402a40 1 0.00
0x402a48 1 0.00
0x402a60 1 0.00
0x402a68 1 0.00
0x402a70 1 0.00
0x402a78 1 0.00
0x402a80 1 0.00
0x402a88 1 0.00
0x402a90 1 0.00
0x402a98 1 0.00
0x402aa0 1 0.00
0x402aa8 1 0.00
0x402ab0 1 0.00
0x402ab8 1 0.00
0x402ac0 1 0.00
0x402b10 1 0.00
0x402b18 1 0.00
0x402b20 1 0.00
0x402b28 1 0.00
0x402b30 1 0.00
0x402b38 1 0.00
0x402b40 1 0.00
0x402b48 1 0.00
0x402b50 1 0.00
0x402b58 1 0.00
0x402b60 1 0.00
0x402b68 1 0.00
0x402b70 1 0.00
0x402b78 1 0.00
0x402b80 1 0.00
0x402b88 1 0.00
0x402b90 1 0.00
0x402b98 1 0.00
0x402ba0 1 0.00
0x402ba8 1 0.00
0x402bb0 1 0.00
0x402bb8 1 0.00
0x402bc0 1 0.00
0x402bc8 1 0.00
0x402bd0 1 0.00
0x402bd8 1 0.00
0x402be0 1 0.00
0x402be8 1 0.00
0x402ca0 1 0.00
0x402ca8 1 0.00
0x402cb0 1 0.00
0x402cb8 1 0.00
0x402cc0 1 0.00
0x402e10 1 0.00
0x402e18 1 0.00
0x403128 1 0.00
0x403130 1 0.00
0x403138 1 0.00
0x403140 1 0.00
0x403148 1 0.00
0x403150 1 0.00
0x403158 1 0.00
0x403160 1 0.00
0x403168 1 0.00
0x403170 1 0.00
0x403178 1 0.00
0x403180 1 0.00
0x4031a8 1 0.00
0x4031b0 1 0.00
0x4031e0 1 0.00
0x4031e8 1 0.00
0x4031f0 1 0.00
0x4031f8 1 0.00
0x403628 2 0.00
0x403630 2 0.00
0x403638 2 0.00
0x403640 2 0.00
0x403648 2 0.00
0x403650 2 0.00
0x403658 2 0.00
0x403660 2 0.00
0x403668 2 0.00
0x403670 2 0.00
0x403678 2 0.00
0x403680 2 0.00
0x403688 2 0.00
0x403690 2 0.00
0x403698 2 0.00
0x4036a0 2 0.00
0x4036a8 2 0.00
0x4036b0 2 0.00
0x4036b8 2 0.00
0x4036c0 2 0.00
0x4036c8 2 0.00
0x4036d0 2 0.00
0x4036d8 2 0.00
0x4036e0 2 0.00
0x4036e8 2 0.00
0x4036f0 2 0.00
0x4036f8 2 0.00
0x403700 2 0.00
0x4038b8 2 0.00
0x4038c0 2 0.00
0x4038c8 1 0.00
0x4038d0 1 0.00
0x4038d8 1 0.00
0x4038e0 1 0.00
0x4038e8 1 0.00
0x4038f0 1 0.00
0x4038f8 1 0.00
0x403960 2 0.00
0x403968 2 0.00
0x403970 2 0.00
0x403978 2 0.00
0x4039b0 2 0.00
0x4039b8 2 0.00
0x4039c0 2 0.00
0x4039c8 2 0.00
0x4039d0 2 0.00
0x4039d8 2 0.00
0x4039e0 2 0.00
0x4039e8 2 0.00
0x4039f0 2 0.00
0x4039f8 2 0.00
0x403a00 2 0.00
0x403d00 2 0.00
0x403d08 2 0.00
0x403d10 2 0.00
0x403d18 2 0.00
0x403d20 2 0.00
0x403d28 2 0.00
0x403d30 2 0.00
0x403d38 2 0.00
0x403d40 2 0.00
0x403d58 2 0.00
0x403d60 2 0.00
0x403d68 2 0.00
0x403d70 2 0.00
0x403d78 2 0.00
0x403d80 2 0.00
0x403d88 2 0.00
0x403d90 2 0.00
0x403d98 2 0.00
0x403da0 2 0.00
0x403da8 2 0.00
0x404240 2 0.00
0x404248 2 0.00
0x404250 2 0.00
0x404258 2 0.00
0x404260 2 0.00
0x404268 2 0.00
0x404270 2 0.00
0x404278 2 0.00
0x404280 2 0.00
0x404288 2 0.00
0x404290 2 0.00
0x404298 2 0.00
0x4042a0 2 0.00
0x4042a8 2 0.00
0x4042b0 2 0.00
0x4042c8 2 0.00
0x4042d0 2 0.00
0x4042d8 2 0.00
0x4042e0 2 0.00
0x4042e8 2 0.00
0x4042f0 2 0.00
0x4042f8 2 0.00
0x404320 2 0.00
0x404328 2 0.00
0x404330 2 0.00
0x404338 2 0.00
0x404340 2 0.00
0x404378 2 0.00
0x404380 2 0.00
0x404388 2 0.00
0x404390 2 0.00
0x404398 2 0.00
0x4043a0 2 0.00
0x4043a8 2 0.00
0x4043b0 2 0.00
0x4043b8 2 0.00
0x4043c0 2 0.00
0x4043c8 2 0.00
0x4043d0 2 0.00
0x4043d8 2 0.00
0x4043e0 2 0.00
0x4043e8 2 0.00
0x4043f0 2 0.00
0x4043f8 2 0.00
0x404400 2 0.00
0x404408 2 0.00
0x404410 2 0.00
0x404418 2 0.00
0x404420 2 0.00
0x404428 2 0.00
0x404430 2 0.00
0x404438 2 0.00
0x404440 2 0.00
0x404448 2 0.00
0x404450 2 0.00
0x404458 2 0.00
0x404460 2 0.00
0x404468 1 0.00
0x404470 1 0.00
0x404488 1 0.00
0x404490 1 0.00
0x404498 1 0.00
0x4044a0 1 0.00
0x4044a8 1 0.00
0x4044b0 1 0.00
0x4044b8 1 0.00
0x4044f0 1 0.00
0x4044f8 1 0.00
0x404500 1 0.00
0x404528 2 0.00
0x404530 2 0.00
0x404538 2 0.00
0x404540 2 0.00
0x404548 2 0.00
0x404550 2 0.00
0x404558 2 0.00
0x404560 2 0.00
0x404568 2 0.00
0x404598 2 0.00
0x404660 2 0.00
0x404668 2 0.00
0x404670 2 0.00
0x404698 2 0.00
0x4046a0 2 0.00
0x4046b0 2 0.00
0x4046b8 2 0.00
0x4046c0 2 0.00
0x4046c8 2 0.00
0x4046d0 2 0.00
0x4046d8 2 0.00
0x404708 2 0.00
0x404710 2 0.00
0x404718 2 0.00
0x404720 2 0.00
0x404738 2 0.00
0x404740 2 0.00
0x404748 2 0.00
0x404750 2 0.00
0x404758 2 0.00
0x404760 2 0.00
0x404768 2 0.00
0x404770 2 0.00
0x404d08 3 0.00
0x404d10 3 0.00
0x404d18 3 0.00
0x404d20 3 0.00
0x404d28 3 0.00
0x404d30 3 0.00
0x404d38 3 0.00
0x404d40 3 0.00
0x404d48 3 0.00
0x404d50 3 0.00
0x404d58 3 0.00
0x404d60 3 0.00
0x404d68 3 0.00
0x404d70 3 0.00
0x404d78 3 0.00
0x404f20 2 0.00
0x404f28 2 0.00
0x404f30 2 0.00
0x404f38 2 0.00
0x404f40 2 0.00
0x404f48 2 0.00
0x4053c0 3 0.00
0x4053c8 3 0.00
0x4053d0 3 0.00
0x4053d8 3 0.00
0x4053f0 3 0.00
0x4053f8 3 0.00
0x405400 3 0.00
0x405408 3 0.00
0x405410 3 0.00
0x405418 3 0.00
0x405420 3 0.00
0x405428 3 0.00
0x405430 3 0.00
0x405438 3 0.00
0x405440 3 0.00
0x405ca0 2 0.00
0x405ca8 2 0.00
0x405cb0 2 0.00
0x405cb8 2 0.00
0x405cc0 2 0.00
0x405cc8 2 0.00
0x405cd0 2 0.00
0x405cd8 2 0.00
0x405ce0 2 0.00
0x405ce8 2 0.00
0x405cf0 2 0.00
0x405cf8 1 0.00
0x405d00 1 0.00
0x405d08 1 0.00
0x405d10 1 0.00
0x405d18 1 0.00
0x405d20 1 0.00
0x405d28 1 0.00
0x405d30 1 0.00
0x405d58 1 0.00
0x405d60 1 0.00
0x405da0 1 0.00
0x405da8 1 0.00
0x405db0 2 0.00
0x405db8 2 0.00
0x405dc0 2 0.00
0x405dc8 2 0.00
0x405dd0 2 0.00
0x405eb0 2 0.00
0x405eb8 2 0.00
0x405ec0 2 0.00
0x405ec8 2 0.00
0x405ed0 2 0.00
0x405f60 3 0.00
0x405f68 3 0.00
0x405f70 3 0.00
0x405f80 3 0.00
0x405f88 3 0.00
0x405f90 3 0.00
0x405f98 3 0.00
0x405fa0 3 0.00
0x405fa8 3 0.00
0x405fd0 1 0.00
0x405fd8 1 0.00
0x405fe0 1 0.00
0x405fe8 1 0.00
0x405ff0 1 0.00
sim_num_insn_by_pc.end_dist

ld_text_base             0x00400000 # program text (code) segment base
ld_text_size                  24880 # program text (code) size in bytes
ld_data_base             0x10000000 # program initialized data segment base
ld_data_size                  13712 # program init'ed `.data' and uninit'ed `.bss' size in bytes
ld_stack_base            0x7fffc000 # program stack segment base (highest address in stack)
ld_stack_size                 16384 # program initial stack size
ld_prog_entry            0x00400140 # program entry point (initial PC)
ld_environ_base          0x7fff8000 # program environment base address address
ld_target_big_endian              0 # target executable endian-ness, non-zero if big endian
mem.page_count                   16 # total number of pages allocated
mem.page_mem                    64k # total size of memory pages allocated
mem.ptab_misses                  16 # total first level page table misses
mem.ptab_accesses           3094328 # total page table accesses
mem.ptab_miss_rate           0.0000 # first level page table miss rate

+--------------------------------------------------------------+
| effective code range:         [0, fffffff8]                  |
| effective bpred count:        0                              |
| effective sim cycles:         0                              |
| effective bpred misses:       0                              |
| effective icache misses:      0                              |
+--------------------------------------------------------------+

