sim-profile: SimpleScalar/PISA Tool Set version 3.0 of August, 2003.
Copyright (c) 1994-2003 by Todd M. Austin, Ph.D. and SimpleScalar, LLC.
All Rights Reserved. This version of SimpleScalar is licensed for academic
non-commercial use.  No portion of this work may be used by any commercial
entity, or for any commercial purpose, without the prior written permission
of SimpleScalar, LLC (info@simplescalar.com).

sim: command line: /home/sudiptac/sudiptac/Work/simplesim-3.0/sim-profile -pcstat sim_num_insn FFT 

sim: simulation started @ Fri May  8 20:35:17 2009, options follow:

sim-profile: This simulator implements a functional simulator with
profiling support.  Run with the `-h' flag to see profiling options
available.

# -config                     # load configuration from a file
# -dumpconfig                 # dump configuration to a file
# -h                    false # print help message    
# -v                    false # verbose operation     
# -d                    false # enable debug message  
# -i                    false # start in Dlite debugger
-seed                       1 # random number generator seed (0 for timer seed)
# -q                    false # initialize and terminate immediately
# -chkpt               <null> # restore EIO trace execution from <fname>
# -redir:sim           <null> # redirect simulator output to file (non-interactive only)
# -redir:prog          <null> # redirect simulated program output to file
-nice                       0 # simulator scheduling priority
-max:inst                   0 # maximum number of inst's to execute
-all                    false # enable all profile options
-iclass                 false # enable instruction class profiling
-iprof                  false # enable instruction profiling
-brprof                 false # enable branch instruction profiling
-amprof                 false # enable address mode profiling
-segprof                false # enable load/store address segment profiling
-tsymprof               false # enable text symbol profiling
-taddrprof              false # enable text address profiling
-dsymprof               false # enable data symbol profiling
-internal               false # include compiler-internal symbols during symbol profiling
# -pcstat        sim_num_insn # profile stat(s) against text addr's (mult uses ok)

sim: ** starting functional simulation **

sim: ** simulation statistics **
sim_num_insn                 195671 # total number of instructions executed
sim_num_refs                  47531 # total number of loads and stores executed
sim_elapsed_time                  1 # total simulation time in seconds
sim_inst_rate           195671.0000 # simulation speed (in insts/sec)

sim_num_insn_by_pc     # total number of instructions executed (by text address)
sim_num_insn_by_pc.count = 1458
sim_num_insn_by_pc.total = 195670
sim_num_insn_by_pc.imin = 0x400140
sim_num_insn_by_pc.imax = 0x407100
sim_num_insn_by_pc.average = 134.2044
sim_num_insn_by_pc.std_dev = 275.6356
sim_num_insn_by_pc.overflows = 0
# pdf == prob dist fn, cdf == cumulative dist fn
#          index      count    pdf 
sim_num_insn_by_pc.start_dist
0x400140 1 0.00
0x400148 1 0.00
0x400150 1 0.00
0x400158 1 0.00
0x400160 1 0.00
0x400168 1 0.00
0x400170 1 0.00
0x400178 1 0.00
0x400180 1 0.00
0x400188 1 0.00
0x400190 1 0.00
0x400198 1 0.00
0x4001a0 1 0.00
0x4001a8 1 0.00
0x4001b0 1 0.00
0x4001b8 1 0.00
0x4001c0 1 0.00
0x4001c8 1 0.00
0x4001d0 1 0.00
0x4001d8 1 0.00
0x4001e0 1 0.00
0x4001f0 1 0.00
0x4001f8 1 0.00
0x400210 1 0.00
0x400218 1 0.00
0x400220 1 0.00
0x400228 1 0.00
0x400230 9 0.00
0x400238 9 0.00
0x400240 9 0.00
0x400248 8 0.00
0x400250 8 0.00
0x400258 8 0.00
0x400260 1 0.00
0x400268 256 0.13
0x400270 256 0.13
0x400278 256 0.13
0x400280 256 0.13
0x400288 2048 1.05
0x400290 2048 1.05
0x400298 2048 1.05
0x4002a0 2048 1.05
0x4002a8 2048 1.05
0x4002b0 2048 1.05
0x4002b8 2048 1.05
0x4002c0 256 0.13
0x4002c8 256 0.13
0x4002d0 256 0.13
0x4002d8 1 0.00
0x4002e0 1 0.00
0x4002e8 1 0.00
0x4002f0 1 0.00
0x4002f8 1 0.00
0x400300 1 0.00
0x400308 1 0.00
0x400310 1 0.00
0x400318 1 0.00
0x400320 1 0.00
0x400328 1 0.00
0x400330 1 0.00
0x400338 1 0.00
0x400340 1 0.00
0x400348 1 0.00
0x400350 1 0.00
0x400358 1 0.00
0x400360 1 0.00
0x400368 1 0.00
0x400370 1 0.00
0x400378 1 0.00
0x400380 1 0.00
0x400388 1 0.00
0x400390 1 0.00
0x400398 1 0.00
0x4003a0 256 0.13
0x4003a8 256 0.13
0x4003b0 256 0.13
0x4003b8 256 0.13
0x4003c0 256 0.13
0x4003c8 256 0.13
0x4003d0 256 0.13
0x4003d8 256 0.13
0x4003e0 256 0.13
0x4003e8 256 0.13
0x4003f0 256 0.13
0x4003f8 256 0.13
0x400400 256 0.13
0x400408 256 0.13
0x400410 256 0.13
0x400418 256 0.13
0x400420 256 0.13
0x400428 256 0.13
0x400430 256 0.13
0x400438 256 0.13
0x400440 256 0.13
0x400448 256 0.13
0x400450 256 0.13
0x400458 256 0.13
0x400460 256 0.13
0x400468 256 0.13
0x400470 256 0.13
0x400478 256 0.13
0x400480 256 0.13
0x400488 256 0.13
0x400490 256 0.13
0x400498 256 0.13
0x4004a0 256 0.13
0x4004a8 256 0.13
0x4004b0 256 0.13
0x4004b8 256 0.13
0x4004c0 256 0.13
0x4004c8 256 0.13
0x4004d0 256 0.13
0x4004d8 256 0.13
0x4004e0 1 0.00
0x400500 1 0.00
0x400508 1 0.00
0x400510 1 0.00
0x400518 1 0.00
0x400520 1 0.00
0x400528 1 0.00
0x400530 1 0.00
0x400538 1 0.00
0x400540 1 0.00
0x400548 1 0.00
0x400550 1 0.00
0x400558 1 0.00
0x400560 1 0.00
0x400568 1 0.00
0x400570 256 0.13
0x400578 256 0.13
0x400580 256 0.13
0x400588 256 0.13
0x400590 256 0.13
0x400598 256 0.13
0x4005a0 256 0.13
0x4005a8 256 0.13
0x4005b0 256 0.13
0x4005b8 256 0.13
0x4005c0 256 0.13
0x4005c8 256 0.13
0x4005d0 256 0.13
0x4005d8 256 0.13
0x4005e0 256 0.13
0x4005e8 1 0.00
0x4005f0 1 0.00
0x4005f8 1 0.00
0x400600 1 0.00
0x400608 1 0.00
0x400610 1 0.00
0x400618 1 0.00
0x400620 1 0.00
0x400628 1 0.00
0x400630 1 0.00
0x400638 1 0.00
0x400640 8 0.00
0x400648 8 0.00
0x400650 8 0.00
0x400660 8 0.00
0x400668 8 0.00
0x400688 8 0.00
0x400690 8 0.00
0x400698 8 0.00
0x4006a0 8 0.00
0x4006a8 8 0.00
0x4006b0 8 0.00
0x4006b8 8 0.00
0x4006c0 8 0.00
0x4006c8 8 0.00
0x4006d0 8 0.00
0x4006d8 8 0.00
0x4006e0 8 0.00
0x4006e8 8 0.00
0x4006f0 8 0.00
0x4006f8 8 0.00
0x400700 8 0.00
0x400708 8 0.00
0x400710 8 0.00
0x400718 8 0.00
0x400720 8 0.00
0x400728 8 0.00
0x400730 8 0.00
0x400738 8 0.00
0x400740 8 0.00
0x400748 8 0.00
0x400750 8 0.00
0x400758 8 0.00
0x400760 8 0.00
0x400768 8 0.00
0x400770 8 0.00
0x400778 255 0.13
0x400780 255 0.13
0x400788 255 0.13
0x400790 255 0.13
0x400798 255 0.13
0x4007a0 255 0.13
0x4007a8 255 0.13
0x4007b0 255 0.13
0x4007b8 255 0.13
0x4007c0 255 0.13
0x4007c8 255 0.13
0x4007d0 255 0.13
0x4007d8 255 0.13
0x4007e0 255 0.13
0x4007e8 255 0.13
0x4007f0 255 0.13
0x4007f8 1024 0.52
0x400800 1024 0.52
0x400808 1024 0.52
0x400810 1024 0.52
0x400818 1024 0.52
0x400820 1024 0.52
0x400828 1024 0.52
0x400830 1024 0.52
0x400838 1024 0.52
0x400840 1024 0.52
0x400848 1024 0.52
0x400850 1024 0.52
0x400858 1024 0.52
0x400860 1024 0.52
0x400868 1024 0.52
0x400870 1024 0.52
0x400878 1024 0.52
0x400880 1024 0.52
0x400888 1024 0.52
0x400890 1024 0.52
0x400898 1024 0.52
0x4008a0 1024 0.52
0x4008a8 1024 0.52
0x4008b0 1024 0.52
0x4008b8 1024 0.52
0x4008c0 1024 0.52
0x4008c8 1024 0.52
0x4008d0 1024 0.52
0x4008d8 1024 0.52
0x4008e0 1024 0.52
0x4008e8 1024 0.52
0x4008f0 1024 0.52
0x4008f8 1024 0.52
0x400900 1024 0.52
0x400908 1024 0.52
0x400910 1024 0.52
0x400918 1024 0.52
0x400920 1024 0.52
0x400928 1024 0.52
0x400930 1024 0.52
0x400938 1024 0.52
0x400940 1024 0.52
0x400948 1024 0.52
0x400950 1024 0.52
0x400958 1024 0.52
0x400960 1024 0.52
0x400968 1024 0.52
0x400970 1024 0.52
0x400978 1024 0.52
0x400980 1024 0.52
0x400988 1024 0.52
0x400990 1024 0.52
0x400998 255 0.13
0x4009a0 255 0.13
0x4009a8 255 0.13
0x4009b0 8 0.00
0x4009b8 8 0.00
0x4009c0 8 0.00
0x4009c8 8 0.00
0x4009d0 8 0.00
0x4009d8 1 0.00
0x4009e0 1 0.00
0x4009e8 1 0.00
0x4009f0 1 0.00
0x4009f8 1 0.00
0x400a00 1 0.00
0x400a08 1 0.00
0x400a10 1 0.00
0x400a18 1 0.00
0x400a20 1 0.00
0x400a28 1 0.00
0x400a30 1 0.00
0x400a38 1 0.00
0x400a40 1 0.00
0x400a50 1 0.00
0x400a58 1 0.00
0x400a60 1 0.00
0x400a68 1 0.00
0x400a70 1 0.00
0x400a78 1 0.00
0x400a80 1 0.00
0x400a88 1 0.00
0x400a90 1 0.00
0x400a98 1 0.00
0x400aa0 1 0.00
0x400aa8 1 0.00
0x400ab0 1 0.00
0x400ab8 1 0.00
0x400ac0 1 0.00
0x400ac8 1 0.00
0x400ad0 1 0.00
0x400ad8 1 0.00
0x400ae0 1 0.00
0x400ae8 1 0.00
0x400af0 1 0.00
0x400af8 1 0.00
0x400b00 1 0.00
0x400bb0 1 0.00
0x400bb8 1 0.00
0x400bc0 1 0.00
0x400bc8 1 0.00
0x400bd0 1 0.00
0x400c20 272 0.14
0x400c28 272 0.14
0x400c30 272 0.14
0x400c38 272 0.14
0x400c40 272 0.14
0x400c48 272 0.14
0x400c50 272 0.14
0x400c58 272 0.14
0x400c60 272 0.14
0x400c68 272 0.14
0x400c70 272 0.14
0x400c88 272 0.14
0x400c90 272 0.14
0x400c98 272 0.14
0x400ca0 272 0.14
0x400ca8 272 0.14
0x400cb0 272 0.14
0x400cb8 272 0.14
0x400cc0 272 0.14
0x400cc8 272 0.14
0x400cd0 272 0.14
0x400cd8 272 0.14
0x400ce0 272 0.14
0x400ce8 272 0.14
0x400cf0 272 0.14
0x400cf8 272 0.14
0x400d00 196 0.10
0x400d08 196 0.10
0x400d10 196 0.10
0x400d18 196 0.10
0x400d20 67 0.03
0x400d28 67 0.03
0x400d30 67 0.03
0x400d38 67 0.03
0x400d40 67 0.03
0x400d48 67 0.03
0x400d50 67 0.03
0x400d58 67 0.03
0x400d60 129 0.07
0x400d68 129 0.07
0x400d70 129 0.07
0x400d78 129 0.07
0x400d80 129 0.07
0x400d88 129 0.07
0x400d90 129 0.07
0x400d98 129 0.07
0x400da0 129 0.07
0x400da8 129 0.07
0x400db0 129 0.07
0x400db8 129 0.07
0x400dc0 129 0.07
0x400dc8 129 0.07
0x400dd0 129 0.07
0x400dd8 129 0.07
0x400de0 129 0.07
0x400de8 129 0.07
0x400df0 129 0.07
0x400df8 129 0.07
0x400e00 129 0.07
0x400e08 129 0.07
0x400e10 129 0.07
0x400e18 129 0.07
0x400e20 129 0.07
0x400e28 129 0.07
0x400e30 129 0.07
0x400e38 129 0.07
0x400e40 129 0.07
0x400e48 129 0.07
0x400e50 129 0.07
0x400e58 129 0.07
0x400e60 129 0.07
0x400e68 129 0.07
0x400e70 129 0.07
0x400e78 10 0.01
0x400e80 10 0.01
0x400e88 10 0.01
0x400e90 10 0.01
0x400e98 119 0.06
0x400ea0 119 0.06
0x400ea8 129 0.07
0x400eb0 129 0.07
0x400eb8 129 0.07
0x400ec0 129 0.07
0x400ec8 143 0.07
0x400ed0 143 0.07
0x400ed8 143 0.07
0x400ee0 143 0.07
0x400ee8 131 0.07
0x400ef0 131 0.07
0x400ef8 131 0.07
0x400f00 131 0.07
0x400f08 131 0.07
0x400f10 131 0.07
0x400f18 131 0.07
0x400f20 131 0.07
0x400f28 131 0.07
0x400f30 131 0.07
0x400f38 131 0.07
0x400f40 131 0.07
0x400f48 131 0.07
0x400f50 131 0.07
0x400f58 131 0.07
0x400f60 131 0.07
0x400f68 131 0.07
0x400f70 131 0.07
0x400f78 131 0.07
0x400f80 131 0.07
0x400f88 131 0.07
0x400f90 131 0.07
0x400f98 131 0.07
0x400fa0 131 0.07
0x400fa8 131 0.07
0x400fb0 131 0.07
0x400fb8 131 0.07
0x400fc0 12 0.01
0x400fc8 272 0.14
0x400fd0 272 0.14
0x400fd8 272 0.14
0x400fe0 272 0.14
0x400fe8 272 0.14
0x400ff0 272 0.14
0x400ff8 272 0.14
0x401000 272 0.14
0x401008 272 0.14
0x401010 16 0.01
0x401018 16 0.01
0x401020 16 0.01
0x401028 16 0.01
0x401030 16 0.01
0x401038 16 0.01
0x401040 16 0.01
0x401048 16 0.01
0x401050 16 0.01
0x401058 16 0.01
0x401060 16 0.01
0x401078 16 0.01
0x401080 16 0.01
0x401088 16 0.01
0x401090 16 0.01
0x401098 16 0.01
0x4010a0 16 0.01
0x4010a8 16 0.01
0x4010b0 16 0.01
0x4010b8 16 0.01
0x4010c0 16 0.01
0x4010c8 16 0.01
0x4010d0 16 0.01
0x4010d8 3 0.00
0x4010e0 3 0.00
0x4010e8 3 0.00
0x4010f0 3 0.00
0x4010f8 2 0.00
0x401100 2 0.00
0x401108 2 0.00
0x401110 2 0.00
0x401118 2 0.00
0x401120 2 0.00
0x401128 2 0.00
0x401130 2 0.00
0x401138 2 0.00
0x401140 2 0.00
0x401148 2 0.00
0x401150 2 0.00
0x401158 2 0.00
0x401160 2 0.00
0x401168 2 0.00
0x401170 2 0.00
0x401178 2 0.00
0x401180 2 0.00
0x401188 2 0.00
0x401190 2 0.00
0x401198 2 0.00
0x4011a0 2 0.00
0x4011a8 2 0.00
0x4011b0 2 0.00
0x4011b8 2 0.00
0x4011c0 2 0.00
0x4011c8 2 0.00
0x4011d0 2 0.00
0x4011d8 2 0.00
0x4011e0 2 0.00
0x4011e8 1 0.00
0x4011f0 1 0.00
0x4011f8 1 0.00
0x401200 1 0.00
0x401208 1 0.00
0x401210 14 0.01
0x401218 14 0.01
0x401220 14 0.01
0x401228 14 0.01
0x401230 12 0.01
0x401238 12 0.01
0x401240 2 0.00
0x401248 2 0.00
0x401250 2 0.00
0x401258 2 0.00
0x401260 2 0.00
0x401268 2 0.00
0x401270 2 0.00
0x401278 2 0.00
0x401280 2 0.00
0x401288 2 0.00
0x401290 2 0.00
0x401298 2 0.00
0x4012a0 2 0.00
0x4012a8 2 0.00
0x4012b0 2 0.00
0x4012b8 2 0.00
0x4012c0 2 0.00
0x4012c8 2 0.00
0x4012d0 2 0.00
0x4012d8 2 0.00
0x4012e0 2 0.00
0x4012e8 2 0.00
0x4012f0 2 0.00
0x4012f8 2 0.00
0x401300 2 0.00
0x401308 2 0.00
0x401310 2 0.00
0x401318 2 0.00
0x401320 2 0.00
0x401328 2 0.00
0x401330 2 0.00
0x401338 2 0.00
0x401360 2 0.00
0x401368 2 0.00
0x401370 2 0.00
0x401378 2 0.00
0x401380 2 0.00
0x401388 2 0.00
0x401390 16 0.01
0x401398 16 0.01
0x4013a0 16 0.01
0x4013a8 16 0.01
0x4013b0 16 0.01
0x4013b8 16 0.01
0x4013c0 16 0.01
0x4013d0 1 0.00
0x4013d8 1 0.00
0x4013e0 1 0.00
0x4013e8 1 0.00
0x4013f0 1 0.00
0x4013f8 1 0.00
0x401400 1 0.00
0x401408 1 0.00
0x401410 1 0.00
0x401418 1 0.00
0x401420 1 0.00
0x401428 1 0.00
0x401438 1 0.00
0x401440 1 0.00
0x401448 1 0.00
0x401450 1 0.00
0x401458 1 0.00
0x401670 1 0.00
0x401678 1 0.00
0x401680 1 0.00
0x401688 1 0.00
0x401690 1 0.00
0x401698 1 0.00
0x4016a0 1 0.00
0x4016c0 1 0.00
0x4016e0 288 0.15
0x4016e8 288 0.15
0x4016f0 288 0.15
0x4016f8 288 0.15
0x401700 288 0.15
0x401708 288 0.15
0x401710 288 0.15
0x401718 288 0.15
0x401720 288 0.15
0x401728 288 0.15
0x401730 288 0.15
0x401738 288 0.15
0x401740 288 0.15
0x401748 288 0.15
0x401750 288 0.15
0x401758 288 0.15
0x401760 288 0.15
0x401768 288 0.15
0x401770 288 0.15
0x401780 288 0.15
0x401788 288 0.15
0x401790 288 0.15
0x401798 288 0.15
0x4017a0 288 0.15
0x4017a8 288 0.15
0x4017b0 288 0.15
0x4017b8 288 0.15
0x4017c0 288 0.15
0x4017c8 288 0.15
0x4017d0 288 0.15
0x4017d8 288 0.15
0x4017e0 288 0.15
0x4017e8 288 0.15
0x4017f0 288 0.15
0x4017f8 288 0.15
0x401800 288 0.15
0x401808 288 0.15
0x401810 288 0.15
0x401818 288 0.15
0x401820 288 0.15
0x401828 288 0.15
0x401830 288 0.15
0x401838 288 0.15
0x401840 288 0.15
0x401848 288 0.15
0x401850 288 0.15
0x401858 288 0.15
0x401860 288 0.15
0x401880 288 0.15
0x401888 288 0.15
0x401890 288 0.15
0x401898 288 0.15
0x4018b8 288 0.15
0x4018c0 288 0.15
0x4018c8 288 0.15
0x4018d0 288 0.15
0x4018e8 288 0.15
0x4018f0 288 0.15
0x4018f8 288 0.15
0x401900 288 0.15
0x401988 288 0.15
0x401990 288 0.15
0x401998 288 0.15
0x4019a0 288 0.15
0x4019a8 288 0.15
0x4019b0 288 0.15
0x401a00 288 0.15
0x401a08 288 0.15
0x401a10 288 0.15
0x401a18 288 0.15
0x401a20 288 0.15
0x401a28 288 0.15
0x401a30 288 0.15
0x401a38 288 0.15
0x401a40 288 0.15
0x401a48 288 0.15
0x401a50 288 0.15
0x401a58 288 0.15
0x401a60 288 0.15
0x401a68 288 0.15
0x401a70 288 0.15
0x401a78 288 0.15
0x401a80 253 0.13
0x401a88 253 0.13
0x401a90 253 0.13
0x401a98 253 0.13
0x401aa0 768 0.39
0x401aa8 768 0.39
0x401ab0 768 0.39
0x401ab8 768 0.39
0x401ac0 768 0.39
0x401ac8 768 0.39
0x401ad0 768 0.39
0x401ad8 768 0.39
0x401ae0 768 0.39
0x401ae8 768 0.39
0x401af0 768 0.39
0x401af8 768 0.39
0x401b00 768 0.39
0x401b08 768 0.39
0x401b10 768 0.39
0x401b18 768 0.39
0x401b20 768 0.39
0x401b28 768 0.39
0x401b30 768 0.39
0x401b38 518 0.26
0x401b40 518 0.26
0x401b48 518 0.26
0x401b50 518 0.26
0x401b58 518 0.26
0x401b60 518 0.26
0x401b68 518 0.26
0x401b70 768 0.39
0x401b78 768 0.39
0x401b80 768 0.39
0x401b88 768 0.39
0x401b90 768 0.39
0x401b98 768 0.39
0x401ba0 768 0.39
0x401ba8 768 0.39
0x401bb0 768 0.39
0x401bb8 768 0.39
0x401bc0 768 0.39
0x401bc8 288 0.15
0x401bd0 288 0.15
0x401bd8 288 0.15
0x401be0 288 0.15
0x401be8 194 0.10
0x401bf0 194 0.10
0x401bf8 194 0.10
0x401c00 194 0.10
0x401c08 194 0.10
0x401c10 194 0.10
0x401c18 194 0.10
0x401c20 63 0.03
0x401c28 63 0.03
0x401c30 63 0.03
0x401c38 63 0.03
0x401c40 63 0.03
0x401c48 288 0.15
0x401c50 288 0.15
0x401c58 288 0.15
0x401c60 288 0.15
0x401c68 288 0.15
0x401c70 288 0.15
0x401c78 288 0.15
0x401c80 288 0.15
0x401c88 288 0.15
0x401c90 288 0.15
0x401c98 288 0.15
0x401ca0 288 0.15
0x401ca8 288 0.15
0x401cb0 288 0.15
0x401cb8 288 0.15
0x401cc0 288 0.15
0x401cc8 288 0.15
0x401cd0 288 0.15
0x401cd8 288 0.15
0x401ce0 288 0.15
0x401ce8 288 0.15
0x401cf0 288 0.15
0x401cf8 288 0.15
0x401d00 486 0.25
0x401d08 486 0.25
0x401d10 486 0.25
0x401d18 486 0.25
0x401d20 486 0.25
0x401d28 486 0.25
0x401d30 486 0.25
0x401d38 486 0.25
0x401d40 486 0.25
0x401d48 486 0.25
0x401d50 486 0.25
0x401d58 486 0.25
0x401d60 486 0.25
0x401d70 1 0.00
0x401d78 1 0.00
0x401d80 1 0.00
0x401d88 1 0.00
0x401d90 1 0.00
0x401d98 1 0.00
0x401db8 1 0.00
0x401dc0 1 0.00
0x401dc8 1 0.00
0x401dd0 1 0.00
0x401df0 1 0.00
0x401df8 1 0.00
0x401e00 1 0.00
0x401e08 1 0.00
0x401e10 1 0.00
0x401e18 1 0.00
0x401e20 1 0.00
0x401e28 1 0.00
0x401e30 1 0.00
0x401e38 1 0.00
0x401e40 1 0.00
0x401e48 1 0.00
0x401e50 1 0.00
0x401e58 1 0.00
0x401e60 1 0.00
0x401e68 1 0.00
0x401e70 1 0.00
0x401e78 1 0.00
0x401e80 1 0.00
0x401e88 1 0.00
0x401e90 1 0.00
0x401e98 1 0.00
0x401ea0 1 0.00
0x401ea8 1 0.00
0x401eb8 1 0.00
0x401ec0 1 0.00
0x401ec8 1 0.00
0x401ed0 1 0.00
0x401ed8 1 0.00
0x401ee0 1 0.00
0x401ee8 1 0.00
0x401ef0 1 0.00
0x401ef8 1 0.00
0x401f00 1 0.00
0x401f08 1 0.00
0x401f10 1 0.00
0x401f18 1 0.00
0x401f20 1 0.00
0x401f28 1 0.00
0x401f30 1 0.00
0x401f38 1 0.00
0x401f40 1 0.00
0x401f48 1 0.00
0x401f50 1 0.00
0x401f58 1 0.00
0x401f60 1 0.00
0x401f68 1 0.00
0x401f70 1 0.00
0x401f78 1 0.00
0x401f88 1 0.00
0x401f90 1 0.00
0x401f98 1 0.00
0x401fa0 1 0.00
0x401fa8 1 0.00
0x401fb0 1 0.00
0x401fb8 1 0.00
0x401fc0 1 0.00
0x401fc8 1 0.00
0x401fd0 1 0.00
0x401fd8 1 0.00
0x401fe0 1 0.00
0x401fe8 1 0.00
0x401ff0 1 0.00
0x401ff8 1 0.00
0x402000 1 0.00
0x402008 1 0.00
0x402038 1 0.00
0x402040 1 0.00
0x402050 1 0.00
0x402058 1 0.00
0x402070 1 0.00
0x402078 1 0.00
0x402080 1 0.00
0x402088 1 0.00
0x402098 1 0.00
0x4020a0 1 0.00
0x4020a8 1 0.00
0x4020b0 1 0.00
0x4020b8 1 0.00
0x402340 1 0.00
0x402348 1 0.00
0x402350 1 0.00
0x402358 1 0.00
0x402368 1 0.00
0x402370 1 0.00
0x402378 1 0.00
0x402380 1 0.00
0x402388 1 0.00
0x402390 1 0.00
0x402398 1 0.00
0x4023a0 1 0.00
0x4023a8 1 0.00
0x4023b0 1 0.00
0x4023b8 1 0.00
0x4023c0 1 0.00
0x4023c8 1 0.00
0x4023d0 1 0.00
0x4023d8 1 0.00
0x4023e0 1 0.00
0x4023e8 1 0.00
0x4023f0 1 0.00
0x4023f8 1 0.00
0x402400 1 0.00
0x402408 1 0.00
0x402410 1 0.00
0x402428 1 0.00
0x402430 1 0.00
0x402438 1 0.00
0x402440 1 0.00
0x402448 1 0.00
0x402450 1 0.00
0x402460 1 0.00
0x402468 1 0.00
0x402800 1 0.00
0x402808 1 0.00
0x402810 1 0.00
0x402818 1 0.00
0x402820 1 0.00
0x402828 1 0.00
0x402830 1 0.00
0x402838 1 0.00
0x402840 1 0.00
0x402848 1 0.00
0x402850 1 0.00
0x402858 1 0.00
0x402860 1 0.00
0x402868 1 0.00
0x402870 1 0.00
0x402878 1 0.00
0x402880 1 0.00
0x402888 1 0.00
0x402890 1 0.00
0x402898 1 0.00
0x4028a0 1 0.00
0x4028a8 1 0.00
0x4028b0 1 0.00
0x4028b8 1 0.00
0x4028c0 1 0.00
0x4028c8 1 0.00
0x4029b0 1 0.00
0x4029b8 1 0.00
0x4029c0 1 0.00
0x4029c8 1 0.00
0x4029d0 1 0.00
0x4029d8 1 0.00
0x4029e0 1 0.00
0x4029f0 1 0.00
0x4029f8 1 0.00
0x402a00 1 0.00
0x402a08 1 0.00
0x402a10 1 0.00
0x402a18 1 0.00
0x402a20 1 0.00
0x402a28 1 0.00
0x402a30 1 0.00
0x402a38 1 0.00
0x402a40 1 0.00
0x402a48 1 0.00
0x402a50 1 0.00
0x402a58 1 0.00
0x402a60 1 0.00
0x402a68 1 0.00
0x402a70 1 0.00
0x402d08 1 0.00
0x402d10 1 0.00
0x402d18 1 0.00
0x402d20 1 0.00
0x402d28 1 0.00
0x402d30 1 0.00
0x402d38 1 0.00
0x402d40 1 0.00
0x402d50 4 0.00
0x402d58 4 0.00
0x402d60 4 0.00
0x402d68 4 0.00
0x402d70 4 0.00
0x402d78 4 0.00
0x402d80 4 0.00
0x402d88 1 0.00
0x402d90 1 0.00
0x402d98 1 0.00
0x402da0 1 0.00
0x402da8 1 0.00
0x402db0 1 0.00
0x402db8 3 0.00
0x402dc0 3 0.00
0x402dd8 3 0.00
0x402de0 3 0.00
0x402de8 3 0.00
0x402df0 3 0.00
0x402df8 3 0.00
0x402e00 3 0.00
0x402e08 1 0.00
0x402e10 1 0.00
0x402e18 3 0.00
0x402e20 3 0.00
0x402e28 3 0.00
0x402e30 3 0.00
0x402e48 3 0.00
0x402e50 3 0.00
0x402e58 3 0.00
0x402e60 3 0.00
0x402e88 3 0.00
0x402e90 3 0.00
0x402e98 3 0.00
0x402ea0 2 0.00
0x402ea8 2 0.00
0x402eb0 2 0.00
0x402eb8 2 0.00
0x402ec0 2 0.00
0x402ed8 3 0.00
0x402ee0 3 0.00
0x402ee8 1 0.00
0x402ef0 1 0.00
0x402ef8 1 0.00
0x402f00 1 0.00
0x402f08 3 0.00
0x402f10 3 0.00
0x402f18 2 0.00
0x402f20 2 0.00
0x402f28 2 0.00
0x402f30 2 0.00
0x402f38 1 0.00
0x402f40 1 0.00
0x402f48 1 0.00
0x402f50 1 0.00
0x402f58 1 0.00
0x402f78 1 0.00
0x402f80 3 0.00
0x402f88 3 0.00
0x402f90 3 0.00
0x402f98 4 0.00
0x402fa0 4 0.00
0x402fa8 4 0.00
0x402fb0 4 0.00
0x402fb8 4 0.00
0x402fc0 4 0.00
0x402ff0 864 0.44
0x402ff8 864 0.44
0x403000 864 0.44
0x403008 864 0.44
0x403010 864 0.44
0x403018 864 0.44
0x403020 864 0.44
0x403050 864 0.44
0x403058 864 0.44
0x403060 576 0.29
0x403068 576 0.29
0x403070 576 0.29
0x403078 576 0.29
0x403080 576 0.29
0x403088 576 0.29
0x403090 576 0.29
0x4030c8 576 0.29
0x4030d0 576 0.29
0x4034a0 1 0.00
0x4034a8 1 0.00
0x4034b0 1 0.00
0x4034b8 1 0.00
0x4034f0 1 0.00
0x4034f8 1 0.00
0x403500 1 0.00
0x403508 1 0.00
0x403510 1 0.00
0x403518 1 0.00
0x403520 1 0.00
0x403528 1 0.00
0x403530 1 0.00
0x403538 1 0.00
0x403540 1 0.00
0x403548 1 0.00
0x403550 1 0.00
0x403558 1 0.00
0x403590 1 0.00
0x403598 1 0.00
0x4035a0 1 0.00
0x4035a8 1 0.00
0x4035b0 1 0.00
0x4035b8 1 0.00
0x4035c0 1 0.00
0x4035c8 1 0.00
0x4035d0 1 0.00
0x4035d8 1 0.00
0x4035e0 1 0.00
0x4035e8 1 0.00
0x4035f0 1 0.00
0x4035f8 1 0.00
0x403600 1 0.00
0x403608 1 0.00
0x403610 1 0.00
0x403628 1 0.00
0x403630 1 0.00
0x403638 1 0.00
0x403640 3 0.00
0x403648 3 0.00
0x403650 3 0.00
0x403658 3 0.00
0x403660 3 0.00
0x403668 3 0.00
0x403670 3 0.00
0x403678 3 0.00
0x403680 3 0.00
0x403688 3 0.00
0x403690 4 0.00
0x403698 4 0.00
0x4036a0 4 0.00
0x4036a8 4 0.00
0x4036b0 4 0.00
0x4036b8 4 0.00
0x4036c0 4 0.00
0x4036c8 4 0.00
0x4036d0 4 0.00
0x4036d8 4 0.00
0x403708 4 0.00
0x403710 4 0.00
0x403718 4 0.00
0x403720 390 0.20
0x403728 390 0.20
0x403730 390 0.20
0x403738 390 0.20
0x403740 390 0.20
0x403748 390 0.20
0x403750 390 0.20
0x403758 390 0.20
0x403760 390 0.20
0x403768 390 0.20
0x403770 390 0.20
0x403778 390 0.20
0x403780 4 0.00
0x403788 4 0.00
0x403790 4 0.00
0x403798 12 0.01
0x4037a0 12 0.01
0x4037a8 12 0.01
0x4037b0 12 0.01
0x4037b8 4 0.00
0x4037c0 4 0.00
0x4037e8 4 0.00
0x4037f0 4 0.00
0x4039c0 1 0.00
0x4039c8 1 0.00
0x4039d0 1 0.00
0x4039d8 1 0.00
0x4039e0 1 0.00
0x4039e8 1 0.00
0x4039f0 1 0.00
0x4039f8 1 0.00
0x403a00 1 0.00
0x403a08 1 0.00
0x403a18 1 0.00
0x403a20 1 0.00
0x403a28 1 0.00
0x403a30 1 0.00
0x403a38 1 0.00
0x403a40 1 0.00
0x403a48 1 0.00
0x403a50 1 0.00
0x403a58 1 0.00
0x403a60 1 0.00
0x403a68 1 0.00
0x403a70 1 0.00
0x403a78 1 0.00
0x403a80 1 0.00
0x403a88 1 0.00
0x403a90 1 0.00
0x403a98 1 0.00
0x403aa0 1 0.00
0x403aa8 1 0.00
0x403ab0 1 0.00
0x403ab8 1 0.00
0x403ac0 1 0.00
0x403ac8 1 0.00
0x403ad0 1 0.00
0x403ad8 1 0.00
0x403b28 1 0.00
0x403b30 1 0.00
0x403b38 1 0.00
0x403b40 1 0.00
0x403b48 1 0.00
0x403b50 1 0.00
0x403b58 1 0.00
0x403b70 1 0.00
0x403b78 1 0.00
0x403b80 1 0.00
0x403b88 1 0.00
0x403b90 1 0.00
0x403b98 1 0.00
0x403ba0 1 0.00
0x403ba8 1 0.00
0x403bb0 1 0.00
0x403bb8 1 0.00
0x403bc0 1 0.00
0x403bc8 1 0.00
0x403bd0 1 0.00
0x403c20 1 0.00
0x403c28 1 0.00
0x403c30 1 0.00
0x403c38 1 0.00
0x403c40 1 0.00
0x403c48 1 0.00
0x403c50 1 0.00
0x403c58 1 0.00
0x403c60 1 0.00
0x403c68 1 0.00
0x403c70 1 0.00
0x403c78 1 0.00
0x403c80 1 0.00
0x403c88 1 0.00
0x403c90 1 0.00
0x403c98 1 0.00
0x403ca0 1 0.00
0x403ca8 1 0.00
0x403cb0 1 0.00
0x403cb8 1 0.00
0x403cc0 1 0.00
0x403cc8 1 0.00
0x403cd0 1 0.00
0x403cd8 1 0.00
0x403ce0 1 0.00
0x403ce8 1 0.00
0x403cf0 1 0.00
0x403cf8 1 0.00
0x403db0 1 0.00
0x403db8 1 0.00
0x403dc0 1 0.00
0x403dc8 1 0.00
0x403dd0 1 0.00
0x403f20 1 0.00
0x403f28 1 0.00
0x404238 1 0.00
0x404240 1 0.00
0x404248 1 0.00
0x404250 1 0.00
0x404258 1 0.00
0x404260 1 0.00
0x404268 1 0.00
0x404270 1 0.00
0x404278 1 0.00
0x404280 1 0.00
0x404288 1 0.00
0x404290 1 0.00
0x4042b8 1 0.00
0x4042c0 1 0.00
0x4042f0 1 0.00
0x4042f8 1 0.00
0x404300 1 0.00
0x404308 1 0.00
0x404738 2 0.00
0x404740 2 0.00
0x404748 2 0.00
0x404750 2 0.00
0x404758 2 0.00
0x404760 2 0.00
0x404768 2 0.00
0x404770 2 0.00
0x404778 2 0.00
0x404780 2 0.00
0x404788 2 0.00
0x404790 2 0.00
0x404798 2 0.00
0x4047a0 2 0.00
0x4047a8 2 0.00
0x4047b0 2 0.00
0x4047b8 2 0.00
0x4047c0 2 0.00
0x4047c8 2 0.00
0x4047d0 2 0.00
0x4047d8 2 0.00
0x4047e0 2 0.00
0x4047e8 2 0.00
0x4047f0 2 0.00
0x4047f8 2 0.00
0x404800 2 0.00
0x404808 2 0.00
0x404810 2 0.00
0x4049c8 2 0.00
0x4049d0 2 0.00
0x4049d8 1 0.00
0x4049e0 1 0.00
0x4049e8 1 0.00
0x4049f0 1 0.00
0x4049f8 1 0.00
0x404a00 1 0.00
0x404a08 1 0.00
0x404a70 2 0.00
0x404a78 2 0.00
0x404a80 2 0.00
0x404a88 2 0.00
0x404ac0 2 0.00
0x404ac8 2 0.00
0x404ad0 2 0.00
0x404ad8 2 0.00
0x404ae0 2 0.00
0x404ae8 2 0.00
0x404af0 2 0.00
0x404af8 2 0.00
0x404b00 2 0.00
0x404b08 2 0.00
0x404b10 2 0.00
0x404e10 2 0.00
0x404e18 2 0.00
0x404e20 2 0.00
0x404e28 2 0.00
0x404e30 2 0.00
0x404e38 2 0.00
0x404e40 2 0.00
0x404e48 2 0.00
0x404e50 2 0.00
0x404e68 2 0.00
0x404e70 2 0.00
0x404e78 2 0.00
0x404e80 2 0.00
0x404e88 2 0.00
0x404e90 2 0.00
0x404e98 2 0.00
0x404ea0 2 0.00
0x404ea8 2 0.00
0x404eb0 2 0.00
0x404eb8 2 0.00
0x405350 2 0.00
0x405358 2 0.00
0x405360 2 0.00
0x405368 2 0.00
0x405370 2 0.00
0x405378 2 0.00
0x405380 2 0.00
0x405388 2 0.00
0x405390 2 0.00
0x405398 2 0.00
0x4053a0 2 0.00
0x4053a8 2 0.00
0x4053b0 2 0.00
0x4053b8 2 0.00
0x4053c0 2 0.00
0x4053d8 2 0.00
0x4053e0 2 0.00
0x4053e8 2 0.00
0x4053f0 2 0.00
0x4053f8 2 0.00
0x405400 2 0.00
0x405408 2 0.00
0x405430 2 0.00
0x405438 2 0.00
0x405440 2 0.00
0x405448 2 0.00
0x405450 2 0.00
0x405488 2 0.00
0x405490 2 0.00
0x405498 2 0.00
0x4054a0 2 0.00
0x4054a8 2 0.00
0x4054b0 2 0.00
0x4054b8 2 0.00
0x4054c0 2 0.00
0x4054c8 2 0.00
0x4054d0 2 0.00
0x4054d8 2 0.00
0x4054e0 2 0.00
0x4054e8 2 0.00
0x4054f0 2 0.00
0x4054f8 2 0.00
0x405500 2 0.00
0x405508 2 0.00
0x405510 2 0.00
0x405518 2 0.00
0x405520 2 0.00
0x405528 2 0.00
0x405530 2 0.00
0x405538 2 0.00
0x405540 2 0.00
0x405548 2 0.00
0x405550 2 0.00
0x405558 2 0.00
0x405560 2 0.00
0x405568 2 0.00
0x405570 2 0.00
0x405578 1 0.00
0x405580 1 0.00
0x405598 1 0.00
0x4055a0 1 0.00
0x4055a8 1 0.00
0x4055b0 1 0.00
0x4055b8 1 0.00
0x4055c0 1 0.00
0x4055c8 1 0.00
0x405600 1 0.00
0x405608 1 0.00
0x405610 1 0.00
0x405638 2 0.00
0x405640 2 0.00
0x405648 2 0.00
0x405650 2 0.00
0x405658 2 0.00
0x405660 2 0.00
0x405668 2 0.00
0x405670 2 0.00
0x405678 2 0.00
0x4056a8 2 0.00
0x405770 2 0.00
0x405778 2 0.00
0x405780 2 0.00
0x4057a8 2 0.00
0x4057b0 2 0.00
0x4057c0 2 0.00
0x4057c8 2 0.00
0x4057d0 2 0.00
0x4057d8 2 0.00
0x4057e0 2 0.00
0x4057e8 2 0.00
0x405818 2 0.00
0x405820 2 0.00
0x405828 2 0.00
0x405830 2 0.00
0x405848 2 0.00
0x405850 2 0.00
0x405858 2 0.00
0x405860 2 0.00
0x405868 2 0.00
0x405870 2 0.00
0x405878 2 0.00
0x405880 2 0.00
0x405e18 3 0.00
0x405e20 3 0.00
0x405e28 3 0.00
0x405e30 3 0.00
0x405e38 3 0.00
0x405e40 3 0.00
0x405e48 3 0.00
0x405e50 3 0.00
0x405e58 3 0.00
0x405e60 3 0.00
0x405e68 3 0.00
0x405e70 3 0.00
0x405e78 3 0.00
0x405e80 3 0.00
0x405e88 3 0.00
0x406030 2 0.00
0x406038 2 0.00
0x406040 2 0.00
0x406048 2 0.00
0x406050 2 0.00
0x406058 2 0.00
0x4064d0 3 0.00
0x4064d8 3 0.00
0x4064e0 3 0.00
0x4064e8 3 0.00
0x406500 3 0.00
0x406508 3 0.00
0x406510 3 0.00
0x406518 3 0.00
0x406520 3 0.00
0x406528 3 0.00
0x406530 3 0.00
0x406538 3 0.00
0x406540 3 0.00
0x406548 3 0.00
0x406550 3 0.00
0x406db0 2 0.00
0x406db8 2 0.00
0x406dc0 2 0.00
0x406dc8 2 0.00
0x406dd0 2 0.00
0x406dd8 2 0.00
0x406de0 2 0.00
0x406de8 2 0.00
0x406df0 2 0.00
0x406df8 2 0.00
0x406e00 2 0.00
0x406e08 1 0.00
0x406e10 1 0.00
0x406e18 1 0.00
0x406e20 1 0.00
0x406e28 1 0.00
0x406e30 1 0.00
0x406e38 1 0.00
0x406e40 1 0.00
0x406e68 1 0.00
0x406e70 1 0.00
0x406eb0 1 0.00
0x406eb8 1 0.00
0x406ec0 2 0.00
0x406ec8 2 0.00
0x406ed0 2 0.00
0x406ed8 2 0.00
0x406ee0 2 0.00
0x406fc0 2 0.00
0x406fc8 2 0.00
0x406fd0 2 0.00
0x406fd8 2 0.00
0x406fe0 2 0.00
0x407070 3 0.00
0x407078 3 0.00
0x407080 3 0.00
0x407090 3 0.00
0x407098 3 0.00
0x4070a0 3 0.00
0x4070a8 3 0.00
0x4070b0 3 0.00
0x4070b8 3 0.00
0x4070e0 1 0.00
0x4070e8 1 0.00
0x4070f0 1 0.00
0x4070f8 1 0.00
0x407100 1 0.00
sim_num_insn_by_pc.end_dist

ld_text_base             0x00400000 # program text (code) segment base
ld_text_size                  29248 # program text (code) size in bytes
ld_data_base             0x10000000 # program initialized data segment base
ld_data_size                   5824 # program init'ed `.data' and uninit'ed `.bss' size in bytes
ld_stack_base            0x7fffc000 # program stack segment base (highest address in stack)
ld_stack_size                 16384 # program initial stack size
ld_prog_entry            0x00400140 # program entry point (initial PC)
ld_environ_base          0x7fff8000 # program environment base address address
ld_target_big_endian              0 # target executable endian-ness, non-zero if big endian
mem.page_count                   15 # total number of pages allocated
mem.page_mem                    60k # total size of memory pages allocated
mem.ptab_misses                  15 # total first level page table misses
mem.ptab_accesses           1062108 # total page table accesses
mem.ptab_miss_rate           0.0000 # first level page table miss rate

+--------------------------------------------------------------+
| effective code range:         [0, fffffff8]                  |
| effective bpred count:        0                              |
| effective sim cycles:         0                              |
| effective bpred misses:       0                              |
| effective icache misses:      0                              |
+--------------------------------------------------------------+

