sim-profile: SimpleScalar/PISA Tool Set version 3.0 of August, 2003.
Copyright (c) 1994-2003 by Todd M. Austin, Ph.D. and SimpleScalar, LLC.
All Rights Reserved. This version of SimpleScalar is licensed for academic
non-commercial use.  No portion of this work may be used by any commercial
entity, or for any commercial purpose, without the prior written permission
of SimpleScalar, LLC (info@simplescalar.com).

sim: command line: /home/sudiptac/sudiptac/Work/simplesim-3.0/sim-profile -pcstat sim_num_insn cache_mat 

sim: simulation started @ Wed Apr  8 15:43:02 2009, options follow:

sim-profile: This simulator implements a functional simulator with
profiling support.  Run with the `-h' flag to see profiling options
available.

# -config                     # load configuration from a file
# -dumpconfig                 # dump configuration to a file
# -h                    false # print help message    
# -v                    false # verbose operation     
# -d                    false # enable debug message  
# -i                    false # start in Dlite debugger
-seed                       1 # random number generator seed (0 for timer seed)
# -q                    false # initialize and terminate immediately
# -chkpt               <null> # restore EIO trace execution from <fname>
# -redir:sim           <null> # redirect simulator output to file (non-interactive only)
# -redir:prog          <null> # redirect simulated program output to file
-nice                       0 # simulator scheduling priority
-max:inst                   0 # maximum number of inst's to execute
-all                    false # enable all profile options
-iclass                 false # enable instruction class profiling
-iprof                  false # enable instruction profiling
-brprof                 false # enable branch instruction profiling
-amprof                 false # enable address mode profiling
-segprof                false # enable load/store address segment profiling
-tsymprof               false # enable text symbol profiling
-taddrprof              false # enable text address profiling
-dsymprof               false # enable data symbol profiling
-internal               false # include compiler-internal symbols during symbol profiling
# -pcstat        sim_num_insn # profile stat(s) against text addr's (mult uses ok)

sim: ** starting functional simulation **

sim: ** simulation statistics **
sim_num_insn                  19742 # total number of instructions executed
sim_num_refs                   6563 # total number of loads and stores executed
sim_elapsed_time                  1 # total simulation time in seconds
sim_inst_rate            19742.0000 # simulation speed (in insts/sec)

sim_num_insn_by_pc     # total number of instructions executed (by text address)
sim_num_insn_by_pc.count = 1029
sim_num_insn_by_pc.total = 19741
sim_num_insn_by_pc.imin = 0x400140
sim_num_insn_by_pc.imax = 0x405eb0
sim_num_insn_by_pc.average =  19.1846
sim_num_insn_by_pc.std_dev =  79.1500
sim_num_insn_by_pc.overflows = 0
# pdf == prob dist fn, cdf == cumulative dist fn
#          index      count    pdf 
sim_num_insn_by_pc.start_dist
0x400140 1 0.01
0x400148 1 0.01
0x400150 1 0.01
0x400158 1 0.01
0x400160 1 0.01
0x400168 1 0.01
0x400170 1 0.01
0x400178 1 0.01
0x400180 1 0.01
0x400188 1 0.01
0x400190 1 0.01
0x400198 1 0.01
0x4001a0 1 0.01
0x4001a8 1 0.01
0x4001b0 1 0.01
0x4001b8 1 0.01
0x4001c0 1 0.01
0x4001c8 1 0.01
0x4001d0 1 0.01
0x4001d8 1 0.01
0x4001e0 1 0.01
0x4001f0 2 0.01
0x4001f8 2 0.01
0x400200 2 0.01
0x400208 2 0.01
0x400210 2 0.01
0x400218 32 0.16
0x400220 32 0.16
0x400228 32 0.16
0x400230 32 0.16
0x400238 32 0.16
0x400240 32 0.16
0x400248 32 0.16
0x400250 32 0.16
0x400258 32 0.16
0x400260 32 0.16
0x400268 32 0.16
0x400270 1 0.01
0x400278 1 0.01
0x400280 1 0.01
0x400288 1 0.01
0x400290 1 0.01
0x400368 1 0.01
0x400370 1 0.01
0x400378 8 0.04
0x400380 8 0.04
0x400388 8 0.04
0x400390 8 0.04
0x400398 8 0.04
0x4003a0 8 0.04
0x4003a8 8 0.04
0x4003b0 8 0.04
0x4003b8 8 0.04
0x4003c0 1 0.01
0x4003c8 1 0.01
0x4003d0 1 0.01
0x4003d8 1 0.01
0x4003e0 8 0.04
0x4003e8 8 0.04
0x4003f0 8 0.04
0x4003f8 8 0.04
0x400400 8 0.04
0x400408 8 0.04
0x400410 8 0.04
0x400418 8 0.04
0x400420 8 0.04
0x400428 1 0.01
0x400430 31 0.16
0x400438 31 0.16
0x400440 248 1.26
0x400448 248 1.26
0x400450 248 1.26
0x400458 248 1.26
0x400460 248 1.26
0x400468 248 1.26
0x400470 248 1.26
0x400478 248 1.26
0x400480 248 1.26
0x400488 248 1.26
0x400490 248 1.26
0x400498 32 0.16
0x4004a0 32 0.16
0x4004a8 1 0.01
0x4004b0 1 0.01
0x4004b8 1 0.01
0x4004c0 1 0.01
0x4004c8 1 0.01
0x4004d0 1 0.01
0x4004d8 1 0.01
0x4004e0 1 0.01
0x4004e8 1 0.01
0x4004f0 1 0.01
0x4004f8 1 0.01
0x400500 1 0.01
0x400508 1 0.01
0x400510 1 0.01
0x400518 1 0.01
0x400520 1 0.01
0x400528 1 0.01
0x400530 1 0.01
0x400538 1 0.01
0x400540 1 0.01
0x400548 1 0.01
0x400550 1 0.01
0x400558 1 0.01
0x400560 1 0.01
0x400568 1 0.01
0x400570 1 0.01
0x400578 1 0.01
0x400580 1 0.01
0x400588 1 0.01
0x400590 1 0.01
0x400598 1 0.01
0x4005a0 1 0.01
0x4005a8 1 0.01
0x4005b0 1 0.01
0x4005b8 1 0.01
0x4005c0 1 0.01
0x4005c8 8 0.04
0x4005d0 8 0.04
0x4005d8 8 0.04
0x4005e0 8 0.04
0x4005e8 8 0.04
0x4005f0 8 0.04
0x4005f8 8 0.04
0x400600 8 0.04
0x400608 8 0.04
0x400610 8 0.04
0x400618 8 0.04
0x400620 8 0.04
0x400628 8 0.04
0x400630 8 0.04
0x400638 1 0.01
0x400640 1 0.01
0x400648 1 0.01
0x400650 1 0.01
0x400658 1 0.01
0x400660 1 0.01
0x400668 1 0.01
0x400670 1 0.01
0x400678 1 0.01
0x400680 8 0.04
0x400688 8 0.04
0x400690 8 0.04
0x400698 8 0.04
0x4006a0 8 0.04
0x4006a8 8 0.04
0x4006b0 8 0.04
0x4006b8 8 0.04
0x4006c0 8 0.04
0x4006c8 8 0.04
0x4006d0 8 0.04
0x4006d8 8 0.04
0x4006e0 8 0.04
0x4006e8 8 0.04
0x4006f0 8 0.04
0x4006f8 8 0.04
0x400700 8 0.04
0x400708 8 0.04
0x400710 8 0.04
0x400718 8 0.04
0x400720 8 0.04
0x400728 8 0.04
0x400730 8 0.04
0x400738 8 0.04
0x400740 8 0.04
0x400748 64 0.32
0x400750 64 0.32
0x400758 64 0.32
0x400760 64 0.32
0x400768 64 0.32
0x400770 64 0.32
0x400778 64 0.32
0x400780 512 2.59
0x400788 512 2.59
0x400790 512 2.59
0x400798 512 2.59
0x4007a0 512 2.59
0x4007a8 512 2.59
0x4007b0 512 2.59
0x4007b8 512 2.59
0x4007c0 512 2.59
0x4007c8 512 2.59
0x4007d0 512 2.59
0x4007d8 512 2.59
0x4007e0 512 2.59
0x4007e8 512 2.59
0x4007f0 512 2.59
0x4007f8 512 2.59
0x400800 64 0.32
0x400808 64 0.32
0x400810 64 0.32
0x400818 8 0.04
0x400820 8 0.04
0x400828 8 0.04
0x400830 8 0.04
0x400838 8 0.04
0x400840 8 0.04
0x400848 8 0.04
0x400850 8 0.04
0x400858 8 0.04
0x400860 8 0.04
0x400868 8 0.04
0x400870 8 0.04
0x400878 8 0.04
0x400880 8 0.04
0x400888 8 0.04
0x400890 8 0.04
0x400898 1 0.01
0x4008a0 1 0.01
0x4008a8 1 0.01
0x4008b0 1 0.01
0x4008b8 1 0.01
0x4008c0 1 0.01
0x4008c8 1 0.01
0x4008d0 1 0.01
0x4008d8 1 0.01
0x4008e0 1 0.01
0x4008e8 1 0.01
0x4008f0 1 0.01
0x4008f8 1 0.01
0x400900 1 0.01
0x400908 1 0.01
0x400910 1 0.01
0x400918 1 0.01
0x400920 1 0.01
0x400928 1 0.01
0x400930 1 0.01
0x400938 1 0.01
0x400940 1 0.01
0x400948 1 0.01
0x400950 8 0.04
0x400958 8 0.04
0x400960 8 0.04
0x400968 8 0.04
0x400970 64 0.32
0x400978 64 0.32
0x400980 64 0.32
0x400988 64 0.32
0x400990 64 0.32
0x400998 8 0.04
0x4009a0 8 0.04
0x4009a8 8 0.04
0x4009b0 8 0.04
0x4009b8 1 0.01
0x4009c0 1 0.01
0x4009c8 1 0.01
0x4009d0 8 0.04
0x4009d8 8 0.04
0x4009e0 8 0.04
0x4009e8 64 0.32
0x4009f0 64 0.32
0x4009f8 64 0.32
0x400a00 64 0.32
0x400a08 64 0.32
0x400a10 8 0.04
0x400a18 8 0.04
0x400a20 8 0.04
0x400a28 8 0.04
0x400a30 1 0.01
0x400a38 1 0.01
0x400a40 1 0.01
0x400a48 8 0.04
0x400a50 8 0.04
0x400a58 64 0.32
0x400a60 64 0.32
0x400a68 64 0.32
0x400a70 64 0.32
0x400a78 8 0.04
0x400a80 8 0.04
0x400a88 8 0.04
0x400a90 8 0.04
0x400a98 8 0.04
0x400aa0 1 0.01
0x400aa8 1 0.01
0x400ab0 1 0.01
0x400ab8 1 0.01
0x400ac0 1 0.01
0x400ac8 1 0.01
0x400ad0 1 0.01
0x400ad8 1 0.01
0x400ae0 1 0.01
0x400ae8 1 0.01
0x400af0 1 0.01
0x400af8 1 0.01
0x400b00 1 0.01
0x400b08 1 0.01
0x400b10 1 0.01
0x400b18 1 0.01
0x400b20 1 0.01
0x400b28 1 0.01
0x400b30 1 0.01
0x400b38 1 0.01
0x400b40 1 0.01
0x400b48 1 0.01
0x400b50 1 0.01
0x400b58 1 0.01
0x400b60 1 0.01
0x400b68 1 0.01
0x400b70 1 0.01
0x400b78 1 0.01
0x400b80 1 0.01
0x400b88 1 0.01
0x400b90 1 0.01
0x400b98 1 0.01
0x400ba0 1 0.01
0x400c50 1 0.01
0x400c58 1 0.01
0x400c60 1 0.01
0x400c68 1 0.01
0x400c70 1 0.01
0x400cc0 1 0.01
0x400cc8 1 0.01
0x400cd0 1 0.01
0x400cd8 1 0.01
0x400ce0 1 0.01
0x400ce8 1 0.01
0x400cf0 1 0.01
0x400cf8 1 0.01
0x400d00 1 0.01
0x400d08 1 0.01
0x400d10 1 0.01
0x400d18 1 0.01
0x400d28 1 0.01
0x400d30 1 0.01
0x400d38 1 0.01
0x400d40 1 0.01
0x400d48 1 0.01
0x400f60 1 0.01
0x400f68 1 0.01
0x400f70 1 0.01
0x400f78 1 0.01
0x400f80 1 0.01
0x400f88 1 0.01
0x400f90 1 0.01
0x400fb0 1 0.01
0x400fd0 1 0.01
0x400fd8 1 0.01
0x400fe0 1 0.01
0x400fe8 1 0.01
0x400ff0 1 0.01
0x400ff8 1 0.01
0x401018 1 0.01
0x401020 1 0.01
0x401028 1 0.01
0x401030 1 0.01
0x401050 1 0.01
0x401058 1 0.01
0x401060 1 0.01
0x401068 1 0.01
0x401070 1 0.01
0x401078 1 0.01
0x401080 1 0.01
0x401088 1 0.01
0x401090 1 0.01
0x401098 1 0.01
0x4010a0 1 0.01
0x4010a8 1 0.01
0x4010b0 1 0.01
0x4010b8 1 0.01
0x4010c0 1 0.01
0x4010c8 1 0.01
0x4010d0 1 0.01
0x4010d8 1 0.01
0x4010e0 1 0.01
0x4010e8 1 0.01
0x4010f0 1 0.01
0x4010f8 1 0.01
0x401100 1 0.01
0x401108 1 0.01
0x401118 1 0.01
0x401120 1 0.01
0x401128 1 0.01
0x401130 1 0.01
0x401138 1 0.01
0x401140 1 0.01
0x401148 1 0.01
0x401150 1 0.01
0x401158 1 0.01
0x401160 1 0.01
0x401168 1 0.01
0x401170 1 0.01
0x401178 1 0.01
0x401180 1 0.01
0x401188 1 0.01
0x401190 1 0.01
0x401198 1 0.01
0x4011a0 1 0.01
0x4011a8 1 0.01
0x4011b0 1 0.01
0x4011b8 1 0.01
0x4011c0 1 0.01
0x4011c8 1 0.01
0x4011d0 1 0.01
0x4011d8 1 0.01
0x4011e8 1 0.01
0x4011f0 1 0.01
0x4011f8 1 0.01
0x401200 1 0.01
0x401208 1 0.01
0x401210 1 0.01
0x401218 1 0.01
0x401220 1 0.01
0x401228 1 0.01
0x401230 1 0.01
0x401238 1 0.01
0x401240 1 0.01
0x401248 1 0.01
0x401250 1 0.01
0x401258 1 0.01
0x401260 1 0.01
0x401268 1 0.01
0x401298 1 0.01
0x4012a0 1 0.01
0x4012b0 1 0.01
0x4012b8 1 0.01
0x4012d0 1 0.01
0x4012d8 1 0.01
0x4012e0 1 0.01
0x4012e8 1 0.01
0x4012f8 1 0.01
0x401300 1 0.01
0x401308 1 0.01
0x401310 1 0.01
0x401318 1 0.01
0x4015a0 1 0.01
0x4015a8 1 0.01
0x4015b0 1 0.01
0x4015b8 1 0.01
0x4015c8 1 0.01
0x4015d0 1 0.01
0x4015d8 1 0.01
0x4015e0 1 0.01
0x4015e8 1 0.01
0x4015f0 1 0.01
0x4015f8 1 0.01
0x401600 1 0.01
0x401608 1 0.01
0x401610 1 0.01
0x401618 1 0.01
0x401620 1 0.01
0x401628 1 0.01
0x401630 1 0.01
0x401638 1 0.01
0x401640 1 0.01
0x401648 1 0.01
0x401650 1 0.01
0x401658 1 0.01
0x401660 1 0.01
0x401668 1 0.01
0x401670 1 0.01
0x401688 1 0.01
0x401690 1 0.01
0x401698 1 0.01
0x4016a0 1 0.01
0x4016a8 1 0.01
0x4016b0 1 0.01
0x4016c0 1 0.01
0x4016c8 1 0.01
0x401a60 1 0.01
0x401a68 1 0.01
0x401a70 1 0.01
0x401a78 1 0.01
0x401a80 1 0.01
0x401a88 1 0.01
0x401a90 1 0.01
0x401a98 1 0.01
0x401aa0 1 0.01
0x401aa8 1 0.01
0x401ab0 1 0.01
0x401ab8 1 0.01
0x401ac0 1 0.01
0x401ac8 1 0.01
0x401ad0 1 0.01
0x401ad8 1 0.01
0x401ae0 1 0.01
0x401ae8 1 0.01
0x401af0 1 0.01
0x401af8 1 0.01
0x401b00 1 0.01
0x401b08 1 0.01
0x401b10 1 0.01
0x401b18 1 0.01
0x401b20 1 0.01
0x401b28 1 0.01
0x401c10 1 0.01
0x401c18 1 0.01
0x401c20 1 0.01
0x401c28 1 0.01
0x401c30 1 0.01
0x401c38 1 0.01
0x401c40 1 0.01
0x401c50 1 0.01
0x401c58 1 0.01
0x401c60 1 0.01
0x401c68 1 0.01
0x401c70 1 0.01
0x401c78 1 0.01
0x401c80 1 0.01
0x401c88 1 0.01
0x401c90 1 0.01
0x401c98 1 0.01
0x401ca0 1 0.01
0x401ca8 1 0.01
0x401cb0 1 0.01
0x401cb8 1 0.01
0x401cc0 1 0.01
0x401cc8 1 0.01
0x401cd0 1 0.01
0x401f68 1 0.01
0x401f70 1 0.01
0x401f78 1 0.01
0x401f80 1 0.01
0x401f88 1 0.01
0x401f90 1 0.01
0x401f98 1 0.01
0x401fa0 1 0.01
0x401fb0 4 0.02
0x401fb8 4 0.02
0x401fc0 4 0.02
0x401fc8 4 0.02
0x401fd0 4 0.02
0x401fd8 4 0.02
0x401fe0 4 0.02
0x401fe8 1 0.01
0x401ff0 1 0.01
0x401ff8 1 0.01
0x402000 1 0.01
0x402008 1 0.01
0x402010 1 0.01
0x402018 3 0.02
0x402020 3 0.02
0x402038 3 0.02
0x402040 3 0.02
0x402048 3 0.02
0x402050 3 0.02
0x402058 3 0.02
0x402060 3 0.02
0x402068 1 0.01
0x402070 1 0.01
0x402078 3 0.02
0x402080 3 0.02
0x402088 3 0.02
0x402090 3 0.02
0x4020a8 3 0.02
0x4020b0 3 0.02
0x4020b8 3 0.02
0x4020c0 3 0.02
0x4020e8 3 0.02
0x4020f0 3 0.02
0x4020f8 3 0.02
0x402100 2 0.01
0x402108 2 0.01
0x402110 2 0.01
0x402118 2 0.01
0x402120 2 0.01
0x402138 3 0.02
0x402140 3 0.02
0x402148 1 0.01
0x402150 1 0.01
0x402158 1 0.01
0x402160 1 0.01
0x402168 3 0.02
0x402170 3 0.02
0x402178 2 0.01
0x402180 2 0.01
0x402188 2 0.01
0x402190 2 0.01
0x402198 1 0.01
0x4021a0 1 0.01
0x4021a8 1 0.01
0x4021b0 1 0.01
0x4021b8 1 0.01
0x4021d8 1 0.01
0x4021e0 3 0.02
0x4021e8 3 0.02
0x4021f0 3 0.02
0x4021f8 4 0.02
0x402200 4 0.02
0x402208 4 0.02
0x402210 4 0.02
0x402218 4 0.02
0x402220 4 0.02
0x402250 1 0.01
0x402258 1 0.01
0x402260 1 0.01
0x402268 1 0.01
0x4022a0 1 0.01
0x4022a8 1 0.01
0x4022b0 1 0.01
0x4022b8 1 0.01
0x4022c0 1 0.01
0x4022c8 1 0.01
0x4022d0 3 0.02
0x4022d8 3 0.02
0x4022e0 3 0.02
0x4022e8 3 0.02
0x4022f0 3 0.02
0x4022f8 3 0.02
0x402300 3 0.02
0x402308 3 0.02
0x402310 2 0.01
0x402318 2 0.01
0x402320 2 0.01
0x402328 2 0.01
0x402330 2 0.01
0x402338 2 0.01
0x402340 1 0.01
0x402348 1 0.01
0x402350 1 0.01
0x402358 1 0.01
0x402360 1 0.01
0x402368 1 0.01
0x402370 1 0.01
0x402378 1 0.01
0x4023d8 1 0.01
0x4023e0 1 0.01
0x4023e8 1 0.01
0x4023f0 3 0.02
0x4023f8 3 0.02
0x402400 3 0.02
0x402408 3 0.02
0x402410 3 0.02
0x402418 3 0.02
0x402420 3 0.02
0x402428 3 0.02
0x402430 3 0.02
0x402438 3 0.02
0x402440 4 0.02
0x402448 4 0.02
0x402450 4 0.02
0x402458 4 0.02
0x402460 4 0.02
0x402468 4 0.02
0x402470 4 0.02
0x402478 4 0.02
0x402480 4 0.02
0x402488 4 0.02
0x4024b8 4 0.02
0x4024c0 4 0.02
0x4024c8 4 0.02
0x4024d0 390 1.98
0x4024d8 390 1.98
0x4024e0 390 1.98
0x4024e8 390 1.98
0x4024f0 390 1.98
0x4024f8 390 1.98
0x402500 390 1.98
0x402508 390 1.98
0x402510 390 1.98
0x402518 390 1.98
0x402520 390 1.98
0x402528 390 1.98
0x402530 4 0.02
0x402538 4 0.02
0x402540 4 0.02
0x402548 12 0.06
0x402550 12 0.06
0x402558 12 0.06
0x402560 12 0.06
0x402568 4 0.02
0x402570 4 0.02
0x402598 4 0.02
0x4025a0 4 0.02
0x402770 1 0.01
0x402778 1 0.01
0x402780 1 0.01
0x402788 1 0.01
0x402790 1 0.01
0x402798 1 0.01
0x4027a0 1 0.01
0x4027a8 1 0.01
0x4027b0 1 0.01
0x4027b8 1 0.01
0x4027c8 1 0.01
0x4027d0 1 0.01
0x4027d8 1 0.01
0x4027e0 1 0.01
0x4027e8 1 0.01
0x4027f0 1 0.01
0x4027f8 1 0.01
0x402800 1 0.01
0x402808 1 0.01
0x402810 1 0.01
0x402818 1 0.01
0x402820 1 0.01
0x402828 1 0.01
0x402830 1 0.01
0x402838 1 0.01
0x402840 1 0.01
0x402848 1 0.01
0x402850 1 0.01
0x402858 1 0.01
0x402860 1 0.01
0x402868 1 0.01
0x402870 1 0.01
0x402878 1 0.01
0x402880 1 0.01
0x402888 1 0.01
0x4028d8 1 0.01
0x4028e0 1 0.01
0x4028e8 1 0.01
0x4028f0 1 0.01
0x4028f8 1 0.01
0x402900 1 0.01
0x402908 1 0.01
0x402920 1 0.01
0x402928 1 0.01
0x402930 1 0.01
0x402938 1 0.01
0x402940 1 0.01
0x402948 1 0.01
0x402950 1 0.01
0x402958 1 0.01
0x402960 1 0.01
0x402968 1 0.01
0x402970 1 0.01
0x402978 1 0.01
0x402980 1 0.01
0x4029d0 1 0.01
0x4029d8 1 0.01
0x4029e0 1 0.01
0x4029e8 1 0.01
0x4029f0 1 0.01
0x4029f8 1 0.01
0x402a00 1 0.01
0x402a08 1 0.01
0x402a10 1 0.01
0x402a18 1 0.01
0x402a20 1 0.01
0x402a28 1 0.01
0x402a30 1 0.01
0x402a38 1 0.01
0x402a40 1 0.01
0x402a48 1 0.01
0x402a50 1 0.01
0x402a58 1 0.01
0x402a60 1 0.01
0x402a68 1 0.01
0x402a70 1 0.01
0x402a78 1 0.01
0x402a80 1 0.01
0x402a88 1 0.01
0x402a90 1 0.01
0x402a98 1 0.01
0x402aa0 1 0.01
0x402aa8 1 0.01
0x402b60 1 0.01
0x402b68 1 0.01
0x402b70 1 0.01
0x402b78 1 0.01
0x402b80 1 0.01
0x402cd0 1 0.01
0x402cd8 1 0.01
0x402fe8 1 0.01
0x402ff0 1 0.01
0x402ff8 1 0.01
0x403000 1 0.01
0x403008 1 0.01
0x403010 1 0.01
0x403018 1 0.01
0x403020 1 0.01
0x403028 1 0.01
0x403030 1 0.01
0x403038 1 0.01
0x403040 1 0.01
0x403068 1 0.01
0x403070 1 0.01
0x4030a0 1 0.01
0x4030a8 1 0.01
0x4030b0 1 0.01
0x4030b8 1 0.01
0x4034e8 2 0.01
0x4034f0 2 0.01
0x4034f8 2 0.01
0x403500 2 0.01
0x403508 2 0.01
0x403510 2 0.01
0x403518 2 0.01
0x403520 2 0.01
0x403528 2 0.01
0x403530 2 0.01
0x403538 2 0.01
0x403540 2 0.01
0x403548 2 0.01
0x403550 2 0.01
0x403558 2 0.01
0x403560 2 0.01
0x403568 2 0.01
0x403570 2 0.01
0x403578 2 0.01
0x403580 2 0.01
0x403588 2 0.01
0x403590 2 0.01
0x403598 2 0.01
0x4035a0 2 0.01
0x4035a8 2 0.01
0x4035b0 2 0.01
0x4035b8 2 0.01
0x4035c0 2 0.01
0x403778 2 0.01
0x403780 2 0.01
0x403788 1 0.01
0x403790 1 0.01
0x403798 1 0.01
0x4037a0 1 0.01
0x4037a8 1 0.01
0x4037b0 1 0.01
0x4037b8 1 0.01
0x403820 2 0.01
0x403828 2 0.01
0x403830 2 0.01
0x403838 2 0.01
0x403870 2 0.01
0x403878 2 0.01
0x403880 2 0.01
0x403888 2 0.01
0x403890 2 0.01
0x403898 2 0.01
0x4038a0 2 0.01
0x4038a8 2 0.01
0x4038b0 2 0.01
0x4038b8 2 0.01
0x4038c0 2 0.01
0x403bc0 2 0.01
0x403bc8 2 0.01
0x403bd0 2 0.01
0x403bd8 2 0.01
0x403be0 2 0.01
0x403be8 2 0.01
0x403bf0 2 0.01
0x403bf8 2 0.01
0x403c00 2 0.01
0x403c18 2 0.01
0x403c20 2 0.01
0x403c28 2 0.01
0x403c30 2 0.01
0x403c38 2 0.01
0x403c40 2 0.01
0x403c48 2 0.01
0x403c50 2 0.01
0x403c58 2 0.01
0x403c60 2 0.01
0x403c68 2 0.01
0x404100 2 0.01
0x404108 2 0.01
0x404110 2 0.01
0x404118 2 0.01
0x404120 2 0.01
0x404128 2 0.01
0x404130 2 0.01
0x404138 2 0.01
0x404140 2 0.01
0x404148 2 0.01
0x404150 2 0.01
0x404158 2 0.01
0x404160 2 0.01
0x404168 2 0.01
0x404170 2 0.01
0x404188 2 0.01
0x404190 2 0.01
0x404198 2 0.01
0x4041a0 2 0.01
0x4041a8 2 0.01
0x4041b0 2 0.01
0x4041b8 2 0.01
0x4041e0 2 0.01
0x4041e8 2 0.01
0x4041f0 2 0.01
0x4041f8 2 0.01
0x404200 2 0.01
0x404238 2 0.01
0x404240 2 0.01
0x404248 2 0.01
0x404250 2 0.01
0x404258 2 0.01
0x404260 2 0.01
0x404268 2 0.01
0x404270 2 0.01
0x404278 2 0.01
0x404280 2 0.01
0x404288 2 0.01
0x404290 2 0.01
0x404298 2 0.01
0x4042a0 2 0.01
0x4042a8 2 0.01
0x4042b0 2 0.01
0x4042b8 2 0.01
0x4042c0 2 0.01
0x4042c8 2 0.01
0x4042d0 2 0.01
0x4042d8 2 0.01
0x4042e0 2 0.01
0x4042e8 2 0.01
0x4042f0 2 0.01
0x4042f8 2 0.01
0x404300 2 0.01
0x404308 2 0.01
0x404310 2 0.01
0x404318 2 0.01
0x404320 2 0.01
0x404328 1 0.01
0x404330 1 0.01
0x404348 1 0.01
0x404350 1 0.01
0x404358 1 0.01
0x404360 1 0.01
0x404368 1 0.01
0x404370 1 0.01
0x404378 1 0.01
0x4043b0 1 0.01
0x4043b8 1 0.01
0x4043c0 1 0.01
0x4043e8 2 0.01
0x4043f0 2 0.01
0x4043f8 2 0.01
0x404400 2 0.01
0x404408 2 0.01
0x404410 2 0.01
0x404418 2 0.01
0x404420 2 0.01
0x404428 2 0.01
0x404458 2 0.01
0x404520 2 0.01
0x404528 2 0.01
0x404530 2 0.01
0x404558 2 0.01
0x404560 2 0.01
0x404570 2 0.01
0x404578 2 0.01
0x404580 2 0.01
0x404588 2 0.01
0x404590 2 0.01
0x404598 2 0.01
0x4045c8 2 0.01
0x4045d0 2 0.01
0x4045d8 2 0.01
0x4045e0 2 0.01
0x4045f8 2 0.01
0x404600 2 0.01
0x404608 2 0.01
0x404610 2 0.01
0x404618 2 0.01
0x404620 2 0.01
0x404628 2 0.01
0x404630 2 0.01
0x404bc8 3 0.02
0x404bd0 3 0.02
0x404bd8 3 0.02
0x404be0 3 0.02
0x404be8 3 0.02
0x404bf0 3 0.02
0x404bf8 3 0.02
0x404c00 3 0.02
0x404c08 3 0.02
0x404c10 3 0.02
0x404c18 3 0.02
0x404c20 3 0.02
0x404c28 3 0.02
0x404c30 3 0.02
0x404c38 3 0.02
0x404de0 2 0.01
0x404de8 2 0.01
0x404df0 2 0.01
0x404df8 2 0.01
0x404e00 2 0.01
0x404e08 2 0.01
0x405280 3 0.02
0x405288 3 0.02
0x405290 3 0.02
0x405298 3 0.02
0x4052b0 3 0.02
0x4052b8 3 0.02
0x4052c0 3 0.02
0x4052c8 3 0.02
0x4052d0 3 0.02
0x4052d8 3 0.02
0x4052e0 3 0.02
0x4052e8 3 0.02
0x4052f0 3 0.02
0x4052f8 3 0.02
0x405300 3 0.02
0x405b60 2 0.01
0x405b68 2 0.01
0x405b70 2 0.01
0x405b78 2 0.01
0x405b80 2 0.01
0x405b88 2 0.01
0x405b90 2 0.01
0x405b98 2 0.01
0x405ba0 2 0.01
0x405ba8 2 0.01
0x405bb0 2 0.01
0x405bb8 1 0.01
0x405bc0 1 0.01
0x405bc8 1 0.01
0x405bd0 1 0.01
0x405bd8 1 0.01
0x405be0 1 0.01
0x405be8 1 0.01
0x405bf0 1 0.01
0x405c18 1 0.01
0x405c20 1 0.01
0x405c60 1 0.01
0x405c68 1 0.01
0x405c70 2 0.01
0x405c78 2 0.01
0x405c80 2 0.01
0x405c88 2 0.01
0x405c90 2 0.01
0x405d70 2 0.01
0x405d78 2 0.01
0x405d80 2 0.01
0x405d88 2 0.01
0x405d90 2 0.01
0x405e20 3 0.02
0x405e28 3 0.02
0x405e30 3 0.02
0x405e40 3 0.02
0x405e48 3 0.02
0x405e50 3 0.02
0x405e58 3 0.02
0x405e60 3 0.02
0x405e68 3 0.02
0x405e90 1 0.01
0x405e98 1 0.01
0x405ea0 1 0.01
0x405ea8 1 0.01
0x405eb0 1 0.01
sim_num_insn_by_pc.end_dist

ld_text_base             0x00400000 # program text (code) segment base
ld_text_size                  24560 # program text (code) size in bytes
ld_data_base             0x10000000 # program initialized data segment base
ld_data_size                   4096 # program init'ed `.data' and uninit'ed `.bss' size in bytes
ld_stack_base            0x7fffc000 # program stack segment base (highest address in stack)
ld_stack_size                 16384 # program initial stack size
ld_prog_entry            0x00400140 # program entry point (initial PC)
ld_environ_base          0x7fff8000 # program environment base address address
ld_target_big_endian              0 # target executable endian-ness, non-zero if big endian
mem.page_count                   12 # total number of pages allocated
mem.page_mem                    48k # total size of memory pages allocated
mem.ptab_misses                  12 # total first level page table misses
mem.ptab_accesses            247032 # total page table accesses
mem.ptab_miss_rate           0.0000 # first level page table miss rate

+--------------------------------------------------------------+
| effective code range:         [0, fffffff8]                  |
| effective bpred count:        0                              |
| effective sim cycles:         0                              |
| effective bpred misses:       0                              |
| effective icache misses:      0                              |
+--------------------------------------------------------------+

