sim-profile: SimpleScalar/PISA Tool Set version 3.0 of August, 2003.
Copyright (c) 1994-2003 by Todd M. Austin, Ph.D. and SimpleScalar, LLC.
All Rights Reserved. This version of SimpleScalar is licensed for academic
non-commercial use.  No portion of this work may be used by any commercial
entity, or for any commercial purpose, without the prior written permission
of SimpleScalar, LLC (info@simplescalar.com).

sim: command line: /home/sudiptac/sudiptac/Work/simplesim-3.0/sim-profile -pcstat sim_num_insn compress 

sim: simulation started @ Wed May 20 14:28:17 2009, options follow:

sim-profile: This simulator implements a functional simulator with
profiling support.  Run with the `-h' flag to see profiling options
available.

# -config                     # load configuration from a file
# -dumpconfig                 # dump configuration to a file
# -h                    false # print help message    
# -v                    false # verbose operation     
# -d                    false # enable debug message  
# -i                    false # start in Dlite debugger
-seed                       1 # random number generator seed (0 for timer seed)
# -q                    false # initialize and terminate immediately
# -chkpt               <null> # restore EIO trace execution from <fname>
# -redir:sim           <null> # redirect simulator output to file (non-interactive only)
# -redir:prog          <null> # redirect simulated program output to file
-nice                       0 # simulator scheduling priority
-max:inst                   0 # maximum number of inst's to execute
-all                    false # enable all profile options
-iclass                 false # enable instruction class profiling
-iprof                  false # enable instruction profiling
-brprof                 false # enable branch instruction profiling
-amprof                 false # enable address mode profiling
-segprof                false # enable load/store address segment profiling
-tsymprof               false # enable text symbol profiling
-taddrprof              false # enable text address profiling
-dsymprof               false # enable data symbol profiling
-internal               false # include compiler-internal symbols during symbol profiling
# -pcstat        sim_num_insn # profile stat(s) against text addr's (mult uses ok)

sim: ** starting functional simulation **

sim: ** simulation statistics **
sim_num_insn                  10363 # total number of instructions executed
sim_num_refs                   4873 # total number of loads and stores executed
sim_elapsed_time                  1 # total simulation time in seconds
sim_inst_rate            10363.0000 # simulation speed (in insts/sec)

sim_num_insn_by_pc     # total number of instructions executed (by text address)
sim_num_insn_by_pc.count = 975
sim_num_insn_by_pc.total = 10362
sim_num_insn_by_pc.imin = 0x400140
sim_num_insn_by_pc.imax = 0x406320
sim_num_insn_by_pc.average =  10.6277
sim_num_insn_by_pc.std_dev =  44.4007
sim_num_insn_by_pc.overflows = 0
# pdf == prob dist fn, cdf == cumulative dist fn
#          index      count    pdf 
sim_num_insn_by_pc.start_dist
0x400140 1 0.01
0x400148 1 0.01
0x400150 1 0.01
0x400158 1 0.01
0x400160 1 0.01
0x400168 1 0.01
0x400170 1 0.01
0x400178 1 0.01
0x400180 1 0.01
0x400188 1 0.01
0x400190 1 0.01
0x400198 1 0.01
0x4001a0 1 0.01
0x4001a8 1 0.01
0x4001b0 1 0.01
0x4001b8 1 0.01
0x4001c0 1 0.01
0x4001c8 1 0.01
0x4001d0 1 0.01
0x4001d8 1 0.01
0x4001e0 1 0.01
0x4001f0 1 0.01
0x4001f8 1 0.01
0x400200 1 0.01
0x400208 1 0.01
0x400210 1 0.01
0x400218 1 0.01
0x400220 1 0.01
0x400228 1 0.01
0x400230 1 0.01
0x400238 1 0.01
0x400240 1 0.01
0x400248 1 0.01
0x400250 1 0.01
0x400258 1 0.01
0x400260 1 0.01
0x400268 1 0.01
0x400270 1 0.01
0x400278 1 0.01
0x400280 1 0.01
0x400288 1 0.01
0x400290 1 0.01
0x400298 1 0.01
0x4002a0 1 0.01
0x4002a8 1 0.01
0x4002b0 1 0.01
0x4002b8 50 0.48
0x4002c0 50 0.48
0x4002c8 50 0.48
0x4002d0 50 0.48
0x4002d8 50 0.48
0x4002e0 50 0.48
0x4002e8 50 0.48
0x4002f0 50 0.48
0x4002f8 50 0.48
0x400300 50 0.48
0x400308 50 0.48
0x400310 50 0.48
0x400318 50 0.48
0x400320 50 0.48
0x400328 50 0.48
0x400330 50 0.48
0x400338 50 0.48
0x400340 50 0.48
0x400348 50 0.48
0x400350 50 0.48
0x400358 50 0.48
0x400360 50 0.48
0x400370 50 0.48
0x400378 50 0.48
0x400380 50 0.48
0x400388 50 0.48
0x400390 50 0.48
0x400398 50 0.48
0x4003a0 50 0.48
0x4003a8 50 0.48
0x4003b0 50 0.48
0x4003b8 1 0.01
0x4003c0 1 0.01
0x4003c8 1 0.01
0x4003d0 1 0.01
0x4003d8 1 0.01
0x4003e0 1 0.01
0x4003e8 1 0.01
0x4003f0 1 0.01
0x4003f8 1 0.01
0x400400 1 0.01
0x400408 1 0.01
0x400410 1 0.01
0x400418 1 0.01
0x400420 1 0.01
0x400428 1 0.01
0x400430 1 0.01
0x400438 1 0.01
0x400440 1 0.01
0x400448 1 0.01
0x400450 1 0.01
0x400458 1 0.01
0x400460 1 0.01
0x400468 1 0.01
0x400470 1 0.01
0x400478 1 0.01
0x400480 1 0.01
0x400488 1 0.01
0x400490 1 0.01
0x400498 1 0.01
0x4004a0 1 0.01
0x4004a8 1 0.01
0x4004b0 1 0.01
0x4004b8 1 0.01
0x4004c0 1 0.01
0x4004c8 1 0.01
0x4004d0 1 0.01
0x4004d8 8 0.08
0x4004e0 8 0.08
0x4004e8 8 0.08
0x4004f0 8 0.08
0x4004f8 1 0.01
0x400500 1 0.01
0x400508 1 0.01
0x400510 1 0.01
0x400518 1 0.01
0x400520 1 0.01
0x400528 1 0.01
0x400530 1 0.01
0x400538 1 0.01
0x400540 1 0.01
0x400548 1 0.01
0x400550 49 0.47
0x400558 49 0.47
0x400560 49 0.47
0x400568 49 0.47
0x400570 49 0.47
0x400578 49 0.47
0x400580 49 0.47
0x400588 49 0.47
0x400590 49 0.47
0x400598 49 0.47
0x4005a0 49 0.47
0x4005a8 49 0.47
0x4005b0 49 0.47
0x4005b8 49 0.47
0x4005c0 49 0.47
0x4005c8 49 0.47
0x4005d0 1 0.01
0x4005d8 1 0.01
0x4005e8 1 0.01
0x4005f0 1 0.01
0x400600 1 0.01
0x400608 1 0.01
0x400610 1 0.01
0x400618 1 0.01
0x400640 1 0.01
0x400668 49 0.47
0x400670 49 0.47
0x400678 49 0.47
0x400680 49 0.47
0x400688 49 0.47
0x400690 49 0.47
0x400698 49 0.47
0x4006a0 49 0.47
0x4006a8 49 0.47
0x4006b0 49 0.47
0x4006b8 49 0.47
0x4006c0 49 0.47
0x4006c8 49 0.47
0x4006d0 49 0.47
0x4006d8 49 0.47
0x4006e0 49 0.47
0x4006e8 49 0.47
0x400728 49 0.47
0x400730 49 0.47
0x400738 1 0.01
0x400740 1 0.01
0x400748 1 0.01
0x400750 1 0.01
0x400768 1 0.01
0x400770 1 0.01
0x400778 1 0.01
0x400780 1 0.01
0x400788 1 0.01
0x400790 1 0.01
0x400798 1 0.01
0x4007a0 1 0.01
0x4007a8 1 0.01
0x400958 1 0.01
0x400960 1 0.01
0x400968 1 0.01
0x400970 1 0.01
0x400978 1 0.01
0x400980 1 0.01
0x400988 1 0.01
0x400990 16 0.15
0x400998 16 0.15
0x4009a0 16 0.15
0x4009a8 16 0.15
0x4009b0 16 0.15
0x4009b8 16 0.15
0x4009c0 16 0.15
0x4009c8 16 0.15
0x4009d0 16 0.15
0x4009d8 16 0.15
0x4009e0 16 0.15
0x4009e8 16 0.15
0x4009f0 16 0.15
0x4009f8 16 0.15
0x400a00 16 0.15
0x400a08 16 0.15
0x400a10 16 0.15
0x400a18 16 0.15
0x400a20 16 0.15
0x400a28 16 0.15
0x400a30 1 0.01
0x400a38 1 0.01
0x400a40 1 0.01
0x400a48 1 0.01
0x400a50 1 0.01
0x400a58 1 0.01
0x400a60 1 0.01
0x400a68 50 0.48
0x400a70 50 0.48
0x400a78 50 0.48
0x400a80 50 0.48
0x400a88 50 0.48
0x400a90 50 0.48
0x400a98 50 0.48
0x400aa0 50 0.48
0x400aa8 50 0.48
0x400ab0 50 0.48
0x400ab8 50 0.48
0x400ac0 50 0.48
0x400ac8 50 0.48
0x400ad8 50 0.48
0x400f60 1 0.01
0x400f68 1 0.01
0x400f70 1 0.01
0x400f78 1 0.01
0x400f80 1 0.01
0x400f88 1 0.01
0x400f90 1 0.01
0x400f98 1 0.01
0x400fa0 1 0.01
0x400fa8 1 0.01
0x400fb0 1 0.01
0x400fb8 1 0.01
0x400fc0 1 0.01
0x400fc8 1 0.01
0x400fd0 1 0.01
0x400fd8 1 0.01
0x400fe0 1 0.01
0x400fe8 1 0.01
0x400ff0 1 0.01
0x400ff8 1 0.01
0x401000 1 0.01
0x401008 1 0.01
0x401010 1 0.01
0x4010c0 1 0.01
0x4010c8 1 0.01
0x4010d0 1 0.01
0x4010d8 1 0.01
0x4010e0 1 0.01
0x401130 1 0.01
0x401138 1 0.01
0x401140 1 0.01
0x401148 1 0.01
0x401150 1 0.01
0x401158 1 0.01
0x401160 1 0.01
0x401168 1 0.01
0x401170 1 0.01
0x401178 1 0.01
0x401180 1 0.01
0x401188 1 0.01
0x401198 1 0.01
0x4011a0 1 0.01
0x4011a8 1 0.01
0x4011b0 1 0.01
0x4011b8 1 0.01
0x4013d0 1 0.01
0x4013d8 1 0.01
0x4013e0 1 0.01
0x4013e8 1 0.01
0x4013f0 1 0.01
0x4013f8 1 0.01
0x401400 1 0.01
0x401420 1 0.01
0x401440 1 0.01
0x401448 1 0.01
0x401450 1 0.01
0x401458 1 0.01
0x401460 1 0.01
0x401468 1 0.01
0x401488 1 0.01
0x401490 1 0.01
0x401498 1 0.01
0x4014a0 1 0.01
0x4014c0 1 0.01
0x4014c8 1 0.01
0x4014d0 1 0.01
0x4014d8 1 0.01
0x4014e0 1 0.01
0x4014e8 1 0.01
0x4014f0 1 0.01
0x4014f8 1 0.01
0x401500 1 0.01
0x401508 1 0.01
0x401510 1 0.01
0x401518 1 0.01
0x401520 1 0.01
0x401528 1 0.01
0x401530 1 0.01
0x401538 1 0.01
0x401540 1 0.01
0x401548 1 0.01
0x401550 1 0.01
0x401558 1 0.01
0x401560 1 0.01
0x401568 1 0.01
0x401570 1 0.01
0x401578 1 0.01
0x401588 1 0.01
0x401590 1 0.01
0x401598 1 0.01
0x4015a0 1 0.01
0x4015a8 1 0.01
0x4015b0 1 0.01
0x4015b8 1 0.01
0x4015c0 1 0.01
0x4015c8 1 0.01
0x4015d0 1 0.01
0x4015d8 1 0.01
0x4015e0 1 0.01
0x4015e8 1 0.01
0x4015f0 1 0.01
0x4015f8 1 0.01
0x401600 1 0.01
0x401608 1 0.01
0x401610 1 0.01
0x401618 1 0.01
0x401620 1 0.01
0x401628 1 0.01
0x401630 1 0.01
0x401638 1 0.01
0x401640 1 0.01
0x401648 1 0.01
0x401658 1 0.01
0x401660 1 0.01
0x401668 1 0.01
0x401670 1 0.01
0x401678 1 0.01
0x401680 1 0.01
0x401688 1 0.01
0x401690 1 0.01
0x401698 1 0.01
0x4016a0 1 0.01
0x4016a8 1 0.01
0x4016b0 1 0.01
0x4016b8 1 0.01
0x4016c0 1 0.01
0x4016c8 1 0.01
0x4016d0 1 0.01
0x4016d8 1 0.01
0x401708 1 0.01
0x401710 1 0.01
0x401720 1 0.01
0x401728 1 0.01
0x401740 1 0.01
0x401748 1 0.01
0x401750 1 0.01
0x401758 1 0.01
0x401768 1 0.01
0x401770 1 0.01
0x401778 1 0.01
0x401780 1 0.01
0x401788 1 0.01
0x401a10 1 0.01
0x401a18 1 0.01
0x401a20 1 0.01
0x401a28 1 0.01
0x401a38 1 0.01
0x401a40 1 0.01
0x401a48 1 0.01
0x401a50 1 0.01
0x401a58 1 0.01
0x401a60 1 0.01
0x401a68 1 0.01
0x401a70 1 0.01
0x401a78 1 0.01
0x401a80 1 0.01
0x401a88 1 0.01
0x401a90 1 0.01
0x401a98 1 0.01
0x401aa0 1 0.01
0x401aa8 1 0.01
0x401ab0 1 0.01
0x401ab8 1 0.01
0x401ac0 1 0.01
0x401ac8 1 0.01
0x401ad0 1 0.01
0x401ad8 1 0.01
0x401ae0 1 0.01
0x401af8 1 0.01
0x401b00 1 0.01
0x401b08 1 0.01
0x401b10 1 0.01
0x401b18 1 0.01
0x401b20 1 0.01
0x401b30 1 0.01
0x401b38 1 0.01
0x401ed0 1 0.01
0x401ed8 1 0.01
0x401ee0 1 0.01
0x401ee8 1 0.01
0x401ef0 1 0.01
0x401ef8 1 0.01
0x401f00 1 0.01
0x401f08 1 0.01
0x401f10 1 0.01
0x401f18 1 0.01
0x401f20 1 0.01
0x401f28 1 0.01
0x401f30 1 0.01
0x401f38 1 0.01
0x401f40 1 0.01
0x401f48 1 0.01
0x401f50 1 0.01
0x401f58 1 0.01
0x401f60 1 0.01
0x401f68 1 0.01
0x401f70 1 0.01
0x401f78 1 0.01
0x401f80 1 0.01
0x401f88 1 0.01
0x401f90 1 0.01
0x401f98 1 0.01
0x402080 1 0.01
0x402088 1 0.01
0x402090 1 0.01
0x402098 1 0.01
0x4020a0 1 0.01
0x4020a8 1 0.01
0x4020b0 1 0.01
0x4020c0 1 0.01
0x4020c8 1 0.01
0x4020d0 1 0.01
0x4020d8 1 0.01
0x4020e0 1 0.01
0x4020e8 1 0.01
0x4020f0 1 0.01
0x4020f8 1 0.01
0x402100 1 0.01
0x402108 1 0.01
0x402110 1 0.01
0x402118 1 0.01
0x402120 1 0.01
0x402128 1 0.01
0x402130 1 0.01
0x402138 1 0.01
0x402140 1 0.01
0x4023d8 1 0.01
0x4023e0 1 0.01
0x4023e8 1 0.01
0x4023f0 1 0.01
0x4023f8 1 0.01
0x402400 1 0.01
0x402408 1 0.01
0x402410 1 0.01
0x402420 4 0.04
0x402428 4 0.04
0x402430 4 0.04
0x402438 4 0.04
0x402440 4 0.04
0x402448 4 0.04
0x402450 4 0.04
0x402458 1 0.01
0x402460 1 0.01
0x402468 1 0.01
0x402470 1 0.01
0x402478 1 0.01
0x402480 1 0.01
0x402488 3 0.03
0x402490 3 0.03
0x4024a8 3 0.03
0x4024b0 3 0.03
0x4024b8 3 0.03
0x4024c0 3 0.03
0x4024c8 3 0.03
0x4024d0 3 0.03
0x4024d8 1 0.01
0x4024e0 1 0.01
0x4024e8 3 0.03
0x4024f0 3 0.03
0x4024f8 3 0.03
0x402500 3 0.03
0x402518 3 0.03
0x402520 3 0.03
0x402528 3 0.03
0x402530 3 0.03
0x402558 3 0.03
0x402560 3 0.03
0x402568 3 0.03
0x402570 2 0.02
0x402578 2 0.02
0x402580 2 0.02
0x402588 2 0.02
0x402590 2 0.02
0x4025a8 3 0.03
0x4025b0 3 0.03
0x4025b8 1 0.01
0x4025c0 1 0.01
0x4025c8 1 0.01
0x4025d0 1 0.01
0x4025d8 3 0.03
0x4025e0 3 0.03
0x4025e8 2 0.02
0x4025f0 2 0.02
0x4025f8 2 0.02
0x402600 2 0.02
0x402608 1 0.01
0x402610 1 0.01
0x402618 1 0.01
0x402620 1 0.01
0x402628 1 0.01
0x402648 1 0.01
0x402650 3 0.03
0x402658 3 0.03
0x402660 3 0.03
0x402668 4 0.04
0x402670 4 0.04
0x402678 4 0.04
0x402680 4 0.04
0x402688 4 0.04
0x402690 4 0.04
0x4026c0 1 0.01
0x4026c8 1 0.01
0x4026d0 1 0.01
0x4026d8 1 0.01
0x402710 1 0.01
0x402718 1 0.01
0x402720 1 0.01
0x402728 1 0.01
0x402730 1 0.01
0x402738 1 0.01
0x402740 3 0.03
0x402748 3 0.03
0x402750 3 0.03
0x402758 3 0.03
0x402760 3 0.03
0x402768 3 0.03
0x402770 3 0.03
0x402778 3 0.03
0x402780 2 0.02
0x402788 2 0.02
0x402790 2 0.02
0x402798 2 0.02
0x4027a0 2 0.02
0x4027a8 2 0.02
0x4027b0 1 0.01
0x4027b8 1 0.01
0x4027c0 1 0.01
0x4027c8 1 0.01
0x402848 1 0.01
0x402850 1 0.01
0x402858 1 0.01
0x402860 3 0.03
0x402868 3 0.03
0x402870 3 0.03
0x402878 3 0.03
0x402880 3 0.03
0x402888 3 0.03
0x402890 3 0.03
0x402898 3 0.03
0x4028a0 3 0.03
0x4028a8 3 0.03
0x4028b0 4 0.04
0x4028b8 4 0.04
0x4028c0 4 0.04
0x4028c8 4 0.04
0x4028d0 4 0.04
0x4028d8 4 0.04
0x4028e0 4 0.04
0x4028e8 4 0.04
0x4028f0 4 0.04
0x4028f8 4 0.04
0x402928 4 0.04
0x402930 4 0.04
0x402938 4 0.04
0x402940 390 3.76
0x402948 390 3.76
0x402950 390 3.76
0x402958 390 3.76
0x402960 390 3.76
0x402968 390 3.76
0x402970 390 3.76
0x402978 390 3.76
0x402980 390 3.76
0x402988 390 3.76
0x402990 390 3.76
0x402998 390 3.76
0x4029a0 4 0.04
0x4029a8 4 0.04
0x4029b0 4 0.04
0x4029b8 12 0.12
0x4029c0 12 0.12
0x4029c8 12 0.12
0x4029d0 12 0.12
0x4029d8 4 0.04
0x4029e0 4 0.04
0x402a08 4 0.04
0x402a10 4 0.04
0x402be0 1 0.01
0x402be8 1 0.01
0x402bf0 1 0.01
0x402bf8 1 0.01
0x402c00 1 0.01
0x402c08 1 0.01
0x402c10 1 0.01
0x402c18 1 0.01
0x402c20 1 0.01
0x402c28 1 0.01
0x402c38 1 0.01
0x402c40 1 0.01
0x402c48 1 0.01
0x402c50 1 0.01
0x402c58 1 0.01
0x402c60 1 0.01
0x402c68 1 0.01
0x402c70 1 0.01
0x402c78 1 0.01
0x402c80 1 0.01
0x402c88 1 0.01
0x402c90 1 0.01
0x402c98 1 0.01
0x402ca0 1 0.01
0x402ca8 1 0.01
0x402cb0 1 0.01
0x402cb8 1 0.01
0x402cc0 1 0.01
0x402cc8 1 0.01
0x402cd0 1 0.01
0x402cd8 1 0.01
0x402ce0 1 0.01
0x402ce8 1 0.01
0x402cf0 1 0.01
0x402cf8 1 0.01
0x402d48 1 0.01
0x402d50 1 0.01
0x402d58 1 0.01
0x402d60 1 0.01
0x402d68 1 0.01
0x402d70 1 0.01
0x402d78 1 0.01
0x402d90 1 0.01
0x402d98 1 0.01
0x402da0 1 0.01
0x402da8 1 0.01
0x402db0 1 0.01
0x402db8 1 0.01
0x402dc0 1 0.01
0x402dc8 1 0.01
0x402dd0 1 0.01
0x402dd8 1 0.01
0x402de0 1 0.01
0x402de8 1 0.01
0x402df0 1 0.01
0x402e40 1 0.01
0x402e48 1 0.01
0x402e50 1 0.01
0x402e58 1 0.01
0x402e60 1 0.01
0x402e68 1 0.01
0x402e70 1 0.01
0x402e78 1 0.01
0x402e80 1 0.01
0x402e88 1 0.01
0x402e90 1 0.01
0x402e98 1 0.01
0x402ea0 1 0.01
0x402ea8 1 0.01
0x402eb0 1 0.01
0x402eb8 1 0.01
0x402ec0 1 0.01
0x402ec8 1 0.01
0x402ed0 1 0.01
0x402ed8 1 0.01
0x402ee0 1 0.01
0x402ee8 1 0.01
0x402ef0 1 0.01
0x402ef8 1 0.01
0x402f00 1 0.01
0x402f08 1 0.01
0x402f10 1 0.01
0x402f18 1 0.01
0x402fd0 1 0.01
0x402fd8 1 0.01
0x402fe0 1 0.01
0x402fe8 1 0.01
0x402ff0 1 0.01
0x403140 1 0.01
0x403148 1 0.01
0x403458 1 0.01
0x403460 1 0.01
0x403468 1 0.01
0x403470 1 0.01
0x403478 1 0.01
0x403480 1 0.01
0x403488 1 0.01
0x403490 1 0.01
0x403498 1 0.01
0x4034a0 1 0.01
0x4034a8 1 0.01
0x4034b0 1 0.01
0x4034d8 1 0.01
0x4034e0 1 0.01
0x403510 1 0.01
0x403518 1 0.01
0x403520 1 0.01
0x403528 1 0.01
0x403958 2 0.02
0x403960 2 0.02
0x403968 2 0.02
0x403970 2 0.02
0x403978 2 0.02
0x403980 2 0.02
0x403988 2 0.02
0x403990 2 0.02
0x403998 2 0.02
0x4039a0 2 0.02
0x4039a8 2 0.02
0x4039b0 2 0.02
0x4039b8 2 0.02
0x4039c0 2 0.02
0x4039c8 2 0.02
0x4039d0 2 0.02
0x4039d8 2 0.02
0x4039e0 2 0.02
0x4039e8 2 0.02
0x4039f0 2 0.02
0x4039f8 2 0.02
0x403a00 2 0.02
0x403a08 2 0.02
0x403a10 2 0.02
0x403a18 2 0.02
0x403a20 2 0.02
0x403a28 2 0.02
0x403a30 2 0.02
0x403be8 2 0.02
0x403bf0 2 0.02
0x403bf8 1 0.01
0x403c00 1 0.01
0x403c08 1 0.01
0x403c10 1 0.01
0x403c18 1 0.01
0x403c20 1 0.01
0x403c28 1 0.01
0x403c90 2 0.02
0x403c98 2 0.02
0x403ca0 2 0.02
0x403ca8 2 0.02
0x403ce0 2 0.02
0x403ce8 2 0.02
0x403cf0 2 0.02
0x403cf8 2 0.02
0x403d00 2 0.02
0x403d08 2 0.02
0x403d10 2 0.02
0x403d18 2 0.02
0x403d20 2 0.02
0x403d28 2 0.02
0x403d30 2 0.02
0x404030 2 0.02
0x404038 2 0.02
0x404040 2 0.02
0x404048 2 0.02
0x404050 2 0.02
0x404058 2 0.02
0x404060 2 0.02
0x404068 2 0.02
0x404070 2 0.02
0x404088 2 0.02
0x404090 2 0.02
0x404098 2 0.02
0x4040a0 2 0.02
0x4040a8 2 0.02
0x4040b0 2 0.02
0x4040b8 2 0.02
0x4040c0 2 0.02
0x4040c8 2 0.02
0x4040d0 2 0.02
0x4040d8 2 0.02
0x404570 2 0.02
0x404578 2 0.02
0x404580 2 0.02
0x404588 2 0.02
0x404590 2 0.02
0x404598 2 0.02
0x4045a0 2 0.02
0x4045a8 2 0.02
0x4045b0 2 0.02
0x4045b8 2 0.02
0x4045c0 2 0.02
0x4045c8 2 0.02
0x4045d0 2 0.02
0x4045d8 2 0.02
0x4045e0 2 0.02
0x4045f8 2 0.02
0x404600 2 0.02
0x404608 2 0.02
0x404610 2 0.02
0x404618 2 0.02
0x404620 2 0.02
0x404628 2 0.02
0x404650 2 0.02
0x404658 2 0.02
0x404660 2 0.02
0x404668 2 0.02
0x404670 2 0.02
0x4046a8 2 0.02
0x4046b0 2 0.02
0x4046b8 2 0.02
0x4046c0 2 0.02
0x4046c8 2 0.02
0x4046d0 2 0.02
0x4046d8 2 0.02
0x4046e0 2 0.02
0x4046e8 2 0.02
0x4046f0 2 0.02
0x4046f8 2 0.02
0x404700 2 0.02
0x404708 2 0.02
0x404710 2 0.02
0x404718 2 0.02
0x404720 2 0.02
0x404728 2 0.02
0x404730 2 0.02
0x404738 2 0.02
0x404740 2 0.02
0x404748 2 0.02
0x404750 2 0.02
0x404758 2 0.02
0x404760 2 0.02
0x404768 2 0.02
0x404770 2 0.02
0x404778 2 0.02
0x404780 2 0.02
0x404788 2 0.02
0x404790 2 0.02
0x404798 1 0.01
0x4047a0 1 0.01
0x4047b8 1 0.01
0x4047c0 1 0.01
0x4047c8 1 0.01
0x4047d0 1 0.01
0x4047d8 1 0.01
0x4047e0 1 0.01
0x4047e8 1 0.01
0x404820 1 0.01
0x404828 1 0.01
0x404830 1 0.01
0x404858 2 0.02
0x404860 2 0.02
0x404868 2 0.02
0x404870 2 0.02
0x404878 2 0.02
0x404880 2 0.02
0x404888 2 0.02
0x404890 2 0.02
0x404898 2 0.02
0x4048c8 2 0.02
0x404990 2 0.02
0x404998 2 0.02
0x4049a0 2 0.02
0x4049c8 2 0.02
0x4049d0 2 0.02
0x4049e0 2 0.02
0x4049e8 2 0.02
0x4049f0 2 0.02
0x4049f8 2 0.02
0x404a00 2 0.02
0x404a08 2 0.02
0x404a38 2 0.02
0x404a40 2 0.02
0x404a48 2 0.02
0x404a50 2 0.02
0x404a68 2 0.02
0x404a70 2 0.02
0x404a78 2 0.02
0x404a80 2 0.02
0x404a88 2 0.02
0x404a90 2 0.02
0x404a98 2 0.02
0x404aa0 2 0.02
0x405038 3 0.03
0x405040 3 0.03
0x405048 3 0.03
0x405050 3 0.03
0x405058 3 0.03
0x405060 3 0.03
0x405068 3 0.03
0x405070 3 0.03
0x405078 3 0.03
0x405080 3 0.03
0x405088 3 0.03
0x405090 3 0.03
0x405098 3 0.03
0x4050a0 3 0.03
0x4050a8 3 0.03
0x405250 2 0.02
0x405258 2 0.02
0x405260 2 0.02
0x405268 2 0.02
0x405270 2 0.02
0x405278 2 0.02
0x4056f0 3 0.03
0x4056f8 3 0.03
0x405700 3 0.03
0x405708 3 0.03
0x405720 3 0.03
0x405728 3 0.03
0x405730 3 0.03
0x405738 3 0.03
0x405740 3 0.03
0x405748 3 0.03
0x405750 3 0.03
0x405758 3 0.03
0x405760 3 0.03
0x405768 3 0.03
0x405770 3 0.03
0x405fd0 2 0.02
0x405fd8 2 0.02
0x405fe0 2 0.02
0x405fe8 2 0.02
0x405ff0 2 0.02
0x405ff8 2 0.02
0x406000 2 0.02
0x406008 2 0.02
0x406010 2 0.02
0x406018 2 0.02
0x406020 2 0.02
0x406028 1 0.01
0x406030 1 0.01
0x406038 1 0.01
0x406040 1 0.01
0x406048 1 0.01
0x406050 1 0.01
0x406058 1 0.01
0x406060 1 0.01
0x406088 1 0.01
0x406090 1 0.01
0x4060d0 1 0.01
0x4060d8 1 0.01
0x4060e0 2 0.02
0x4060e8 2 0.02
0x4060f0 2 0.02
0x4060f8 2 0.02
0x406100 2 0.02
0x4061e0 2 0.02
0x4061e8 2 0.02
0x4061f0 2 0.02
0x4061f8 2 0.02
0x406200 2 0.02
0x406290 3 0.03
0x406298 3 0.03
0x4062a0 3 0.03
0x4062b0 3 0.03
0x4062b8 3 0.03
0x4062c0 3 0.03
0x4062c8 3 0.03
0x4062d0 3 0.03
0x4062d8 3 0.03
0x406300 1 0.01
0x406308 1 0.01
0x406310 1 0.01
0x406318 1 0.01
0x406320 1 0.01
sim_num_insn_by_pc.end_dist

ld_text_base             0x00400000 # program text (code) segment base
ld_text_size                  25696 # program text (code) size in bytes
ld_data_base             0x10000000 # program initialized data segment base
ld_data_size                   4096 # program init'ed `.data' and uninit'ed `.bss' size in bytes
ld_stack_base            0x7fffc000 # program stack segment base (highest address in stack)
ld_stack_size                 16384 # program initial stack size
ld_prog_entry            0x00400140 # program entry point (initial PC)
ld_environ_base          0x7fff8000 # program environment base address address
ld_target_big_endian              0 # target executable endian-ness, non-zero if big endian
mem.page_count                   13 # total number of pages allocated
mem.page_mem                    52k # total size of memory pages allocated
mem.ptab_misses                  13 # total first level page table misses
mem.ptab_accesses            213140 # total page table accesses
mem.ptab_miss_rate           0.0001 # first level page table miss rate

+--------------------------------------------------------------+
| effective code range:         [0, fffffff8]                  |
| effective bpred count:        0                              |
| effective sim cycles:         0                              |
| effective bpred misses:       0                              |
| effective icache misses:      0                              |
+--------------------------------------------------------------+

