sim-profile: SimpleScalar/PISA Tool Set version 3.0 of August, 2003.
Copyright (c) 1994-2003 by Todd M. Austin, Ph.D. and SimpleScalar, LLC.
All Rights Reserved. This version of SimpleScalar is licensed for academic
non-commercial use.  No portion of this work may be used by any commercial
entity, or for any commercial purpose, without the prior written permission
of SimpleScalar, LLC (info@simplescalar.com).

sim: command line: /home/sudiptac/sudiptac/Work/simplesim-3.0/sim-profile -pcstat sim_num_insn ludcmp 

sim: simulation started @ Tue Aug  4 19:14:19 2009, options follow:

sim-profile: This simulator implements a functional simulator with
profiling support.  Run with the `-h' flag to see profiling options
available.

# -config                     # load configuration from a file
# -dumpconfig                 # dump configuration to a file
# -h                    false # print help message    
# -v                    false # verbose operation     
# -d                    false # enable debug message  
# -i                    false # start in Dlite debugger
-seed                       1 # random number generator seed (0 for timer seed)
# -q                    false # initialize and terminate immediately
# -chkpt               <null> # restore EIO trace execution from <fname>
# -redir:sim           <null> # redirect simulator output to file (non-interactive only)
# -redir:prog          <null> # redirect simulated program output to file
-nice                       0 # simulator scheduling priority
-max:inst                   0 # maximum number of inst's to execute
-all                    false # enable all profile options
-iclass                 false # enable instruction class profiling
-iprof                  false # enable instruction profiling
-brprof                 false # enable branch instruction profiling
-amprof                 false # enable address mode profiling
-segprof                false # enable load/store address segment profiling
-tsymprof               false # enable text symbol profiling
-taddrprof              false # enable text address profiling
-dsymprof               false # enable data symbol profiling
-internal               false # include compiler-internal symbols during symbol profiling
# -pcstat        sim_num_insn # profile stat(s) against text addr's (mult uses ok)

sim: ** starting functional simulation **

sim: ** simulation statistics **
sim_num_insn                   8063 # total number of instructions executed
sim_num_refs                   3974 # total number of loads and stores executed
sim_elapsed_time                  1 # total simulation time in seconds
sim_inst_rate             8063.0000 # simulation speed (in insts/sec)

sim_num_insn_by_pc     # total number of instructions executed (by text address)
sim_num_insn_by_pc.count = 1026
sim_num_insn_by_pc.total = 8062
sim_num_insn_by_pc.imin = 0x400140
sim_num_insn_by_pc.imax = 0x405dd0
sim_num_insn_by_pc.average =   7.8577
sim_num_insn_by_pc.std_dev =  42.0039
sim_num_insn_by_pc.overflows = 0
# pdf == prob dist fn, cdf == cumulative dist fn
#          index      count    pdf 
sim_num_insn_by_pc.start_dist
0x400140 1 0.01
0x400148 1 0.01
0x400150 1 0.01
0x400158 1 0.01
0x400160 1 0.01
0x400168 1 0.01
0x400170 1 0.01
0x400178 1 0.01
0x400180 1 0.01
0x400188 1 0.01
0x400190 1 0.01
0x400198 1 0.01
0x4001a0 1 0.01
0x4001a8 1 0.01
0x4001b0 1 0.01
0x4001b8 1 0.01
0x4001c0 1 0.01
0x4001c8 1 0.01
0x4001d0 1 0.01
0x4001d8 1 0.01
0x4001e0 1 0.01
0x4001f0 5 0.06
0x4001f8 5 0.06
0x400200 5 0.06
0x400208 5 0.06
0x400210 1 0.01
0x400218 1 0.01
0x400220 4 0.05
0x400228 5 0.06
0x400230 1 0.01
0x400238 1 0.01
0x400240 1 0.01
0x400248 1 0.01
0x400250 1 0.01
0x400258 1 0.01
0x400260 1 0.01
0x400268 1 0.01
0x400270 1 0.01
0x400278 1 0.01
0x400280 1 0.01
0x400288 6 0.07
0x400290 6 0.07
0x400298 6 0.07
0x4002a0 6 0.07
0x4002a8 6 0.07
0x4002b0 36 0.45
0x4002b8 36 0.45
0x4002c0 36 0.45
0x4002c8 36 0.45
0x4002d0 36 0.45
0x4002d8 36 0.45
0x4002e0 6 0.07
0x4002e8 6 0.07
0x4002f0 36 0.45
0x4002f8 36 0.45
0x400300 36 0.45
0x400308 36 0.45
0x400310 36 0.45
0x400318 36 0.45
0x400320 6 0.07
0x400328 6 0.07
0x400330 6 0.07
0x400338 6 0.07
0x400340 6 0.07
0x400348 6 0.07
0x400350 1 0.01
0x400358 1 0.01
0x400360 1 0.01
0x400368 1 0.01
0x400370 1 0.01
0x400378 1 0.01
0x400380 1 0.01
0x400388 1 0.01
0x400390 1 0.01
0x400398 1 0.01
0x4003a0 1 0.01
0x4003a8 1 0.01
0x4003b0 1 0.01
0x4003b8 1 0.01
0x4003c0 1 0.01
0x4003c8 1 0.01
0x4003d0 1 0.01
0x4003d8 1 0.01
0x4003e0 1 0.01
0x4003e8 1 0.01
0x4003f0 1 0.01
0x4003f8 1 0.01
0x400400 1 0.01
0x400428 1 0.01
0x400430 1 0.01
0x400438 1 0.01
0x400440 1 0.01
0x400448 1 0.01
0x400450 1 0.01
0x400458 1 0.01
0x400460 5 0.06
0x400468 5 0.06
0x400470 5 0.06
0x400478 5 0.06
0x400480 5 0.06
0x400488 5 0.06
0x400490 5 0.06
0x400498 5 0.06
0x4004a0 5 0.06
0x4004a8 5 0.06
0x4004b0 5 0.06
0x4004b8 5 0.06
0x4004c0 5 0.06
0x4004c8 5 0.06
0x4004d0 5 0.06
0x4004d8 15 0.19
0x4004e0 15 0.19
0x4004e8 15 0.19
0x4004f0 10 0.12
0x4004f8 10 0.12
0x400500 10 0.12
0x400508 10 0.12
0x400510 20 0.25
0x400518 20 0.25
0x400520 20 0.25
0x400528 20 0.25
0x400530 20 0.25
0x400538 20 0.25
0x400540 20 0.25
0x400548 20 0.25
0x400550 20 0.25
0x400558 20 0.25
0x400560 15 0.19
0x400568 15 0.19
0x400570 15 0.19
0x400578 15 0.19
0x400580 15 0.19
0x400588 15 0.19
0x400590 15 0.19
0x400598 15 0.19
0x4005a0 5 0.06
0x4005a8 5 0.06
0x4005b0 5 0.06
0x4005b8 5 0.06
0x4005c0 5 0.06
0x4005c8 5 0.06
0x4005d0 5 0.06
0x4005d8 5 0.06
0x4005e0 15 0.19
0x4005e8 15 0.19
0x4005f0 15 0.19
0x4005f8 15 0.19
0x400600 15 0.19
0x400608 15 0.19
0x400610 35 0.43
0x400618 35 0.43
0x400620 35 0.43
0x400628 35 0.43
0x400630 35 0.43
0x400638 35 0.43
0x400640 35 0.43
0x400648 35 0.43
0x400650 35 0.43
0x400658 35 0.43
0x400660 15 0.19
0x400668 15 0.19
0x400670 15 0.19
0x400678 15 0.19
0x400680 15 0.19
0x400688 15 0.19
0x400690 5 0.06
0x400698 5 0.06
0x4006a0 5 0.06
0x4006a8 5 0.06
0x4006b0 5 0.06
0x4006b8 5 0.06
0x4006c0 1 0.01
0x4006c8 1 0.01
0x4006d0 1 0.01
0x4006d8 1 0.01
0x4006e0 1 0.01
0x4006e8 1 0.01
0x4006f0 1 0.01
0x4006f8 1 0.01
0x400700 1 0.01
0x400708 1 0.01
0x400710 1 0.01
0x400718 5 0.06
0x400720 5 0.06
0x400728 5 0.06
0x400730 5 0.06
0x400738 5 0.06
0x400740 15 0.19
0x400748 15 0.19
0x400750 15 0.19
0x400758 15 0.19
0x400760 15 0.19
0x400768 15 0.19
0x400770 15 0.19
0x400778 15 0.19
0x400780 15 0.19
0x400788 5 0.06
0x400790 5 0.06
0x400798 5 0.06
0x4007a0 5 0.06
0x4007a8 5 0.06
0x4007b0 5 0.06
0x4007b8 5 0.06
0x4007c0 1 0.01
0x4007c8 1 0.01
0x4007d0 1 0.01
0x4007d8 1 0.01
0x4007e0 1 0.01
0x4007e8 1 0.01
0x4007f0 1 0.01
0x4007f8 1 0.01
0x400800 1 0.01
0x400808 1 0.01
0x400810 1 0.01
0x400818 1 0.01
0x400820 1 0.01
0x400828 1 0.01
0x400830 1 0.01
0x400838 1 0.01
0x400840 1 0.01
0x400848 1 0.01
0x400850 1 0.01
0x400858 1 0.01
0x400860 1 0.01
0x400868 1 0.01
0x400870 1 0.01
0x400878 1 0.01
0x400880 1 0.01
0x400888 1 0.01
0x400890 1 0.01
0x400898 1 0.01
0x4008a0 1 0.01
0x4008a8 1 0.01
0x4008b0 1 0.01
0x4008b8 1 0.01
0x4008c0 1 0.01
0x4008c8 1 0.01
0x4008d0 1 0.01
0x4008d8 1 0.01
0x4008e0 1 0.01
0x4008e8 5 0.06
0x4008f0 5 0.06
0x4008f8 5 0.06
0x400900 5 0.06
0x400908 5 0.06
0x400910 5 0.06
0x400918 5 0.06
0x400920 15 0.19
0x400928 15 0.19
0x400930 15 0.19
0x400938 15 0.19
0x400940 15 0.19
0x400948 15 0.19
0x400950 15 0.19
0x400958 15 0.19
0x400960 15 0.19
0x400968 5 0.06
0x400970 5 0.06
0x400978 5 0.06
0x400980 5 0.06
0x400988 5 0.06
0x400990 5 0.06
0x400998 5 0.06
0x4009a0 5 0.06
0x4009a8 5 0.06
0x4009b0 1 0.01
0x4009b8 1 0.01
0x4009c0 1 0.01
0x4009c8 1 0.01
0x4009d0 1 0.01
0x4009d8 1 0.01
0x4009e0 1 0.01
0x4009e8 1 0.01
0x4009f0 1 0.01
0x4009f8 1 0.01
0x400a00 1 0.01
0x400a10 1 0.01
0x400a18 1 0.01
0x400a20 1 0.01
0x400a28 1 0.01
0x400a30 1 0.01
0x400a38 1 0.01
0x400a40 1 0.01
0x400a48 1 0.01
0x400a50 1 0.01
0x400a58 1 0.01
0x400a60 1 0.01
0x400a68 1 0.01
0x400a70 1 0.01
0x400a78 1 0.01
0x400a80 1 0.01
0x400a88 1 0.01
0x400a90 1 0.01
0x400a98 1 0.01
0x400aa0 1 0.01
0x400aa8 1 0.01
0x400ab0 1 0.01
0x400ab8 1 0.01
0x400ac0 1 0.01
0x400b70 1 0.01
0x400b78 1 0.01
0x400b80 1 0.01
0x400b88 1 0.01
0x400b90 1 0.01
0x400be0 1 0.01
0x400be8 1 0.01
0x400bf0 1 0.01
0x400bf8 1 0.01
0x400c00 1 0.01
0x400c08 1 0.01
0x400c10 1 0.01
0x400c18 1 0.01
0x400c20 1 0.01
0x400c28 1 0.01
0x400c30 1 0.01
0x400c38 1 0.01
0x400c48 1 0.01
0x400c50 1 0.01
0x400c58 1 0.01
0x400c60 1 0.01
0x400c68 1 0.01
0x400e80 1 0.01
0x400e88 1 0.01
0x400e90 1 0.01
0x400e98 1 0.01
0x400ea0 1 0.01
0x400ea8 1 0.01
0x400eb0 1 0.01
0x400ed0 1 0.01
0x400ef0 1 0.01
0x400ef8 1 0.01
0x400f00 1 0.01
0x400f08 1 0.01
0x400f10 1 0.01
0x400f18 1 0.01
0x400f38 1 0.01
0x400f40 1 0.01
0x400f48 1 0.01
0x400f50 1 0.01
0x400f70 1 0.01
0x400f78 1 0.01
0x400f80 1 0.01
0x400f88 1 0.01
0x400f90 1 0.01
0x400f98 1 0.01
0x400fa0 1 0.01
0x400fa8 1 0.01
0x400fb0 1 0.01
0x400fb8 1 0.01
0x400fc0 1 0.01
0x400fc8 1 0.01
0x400fd0 1 0.01
0x400fd8 1 0.01
0x400fe0 1 0.01
0x400fe8 1 0.01
0x400ff0 1 0.01
0x400ff8 1 0.01
0x401000 1 0.01
0x401008 1 0.01
0x401010 1 0.01
0x401018 1 0.01
0x401020 1 0.01
0x401028 1 0.01
0x401038 1 0.01
0x401040 1 0.01
0x401048 1 0.01
0x401050 1 0.01
0x401058 1 0.01
0x401060 1 0.01
0x401068 1 0.01
0x401070 1 0.01
0x401078 1 0.01
0x401080 1 0.01
0x401088 1 0.01
0x401090 1 0.01
0x401098 1 0.01
0x4010a0 1 0.01
0x4010a8 1 0.01
0x4010b0 1 0.01
0x4010b8 1 0.01
0x4010c0 1 0.01
0x4010c8 1 0.01
0x4010d0 1 0.01
0x4010d8 1 0.01
0x4010e0 1 0.01
0x4010e8 1 0.01
0x4010f0 1 0.01
0x4010f8 1 0.01
0x401108 1 0.01
0x401110 1 0.01
0x401118 1 0.01
0x401120 1 0.01
0x401128 1 0.01
0x401130 1 0.01
0x401138 1 0.01
0x401140 1 0.01
0x401148 1 0.01
0x401150 1 0.01
0x401158 1 0.01
0x401160 1 0.01
0x401168 1 0.01
0x401170 1 0.01
0x401178 1 0.01
0x401180 1 0.01
0x401188 1 0.01
0x4011b8 1 0.01
0x4011c0 1 0.01
0x4011d0 1 0.01
0x4011d8 1 0.01
0x4011f0 1 0.01
0x4011f8 1 0.01
0x401200 1 0.01
0x401208 1 0.01
0x401218 1 0.01
0x401220 1 0.01
0x401228 1 0.01
0x401230 1 0.01
0x401238 1 0.01
0x4014c0 1 0.01
0x4014c8 1 0.01
0x4014d0 1 0.01
0x4014d8 1 0.01
0x4014e8 1 0.01
0x4014f0 1 0.01
0x4014f8 1 0.01
0x401500 1 0.01
0x401508 1 0.01
0x401510 1 0.01
0x401518 1 0.01
0x401520 1 0.01
0x401528 1 0.01
0x401530 1 0.01
0x401538 1 0.01
0x401540 1 0.01
0x401548 1 0.01
0x401550 1 0.01
0x401558 1 0.01
0x401560 1 0.01
0x401568 1 0.01
0x401570 1 0.01
0x401578 1 0.01
0x401580 1 0.01
0x401588 1 0.01
0x401590 1 0.01
0x4015a8 1 0.01
0x4015b0 1 0.01
0x4015b8 1 0.01
0x4015c0 1 0.01
0x4015c8 1 0.01
0x4015d0 1 0.01
0x4015e0 1 0.01
0x4015e8 1 0.01
0x401980 1 0.01
0x401988 1 0.01
0x401990 1 0.01
0x401998 1 0.01
0x4019a0 1 0.01
0x4019a8 1 0.01
0x4019b0 1 0.01
0x4019b8 1 0.01
0x4019c0 1 0.01
0x4019c8 1 0.01
0x4019d0 1 0.01
0x4019d8 1 0.01
0x4019e0 1 0.01
0x4019e8 1 0.01
0x4019f0 1 0.01
0x4019f8 1 0.01
0x401a00 1 0.01
0x401a08 1 0.01
0x401a10 1 0.01
0x401a18 1 0.01
0x401a20 1 0.01
0x401a28 1 0.01
0x401a30 1 0.01
0x401a38 1 0.01
0x401a40 1 0.01
0x401a48 1 0.01
0x401b30 1 0.01
0x401b38 1 0.01
0x401b40 1 0.01
0x401b48 1 0.01
0x401b50 1 0.01
0x401b58 1 0.01
0x401b60 1 0.01
0x401b70 1 0.01
0x401b78 1 0.01
0x401b80 1 0.01
0x401b88 1 0.01
0x401b90 1 0.01
0x401b98 1 0.01
0x401ba0 1 0.01
0x401ba8 1 0.01
0x401bb0 1 0.01
0x401bb8 1 0.01
0x401bc0 1 0.01
0x401bc8 1 0.01
0x401bd0 1 0.01
0x401bd8 1 0.01
0x401be0 1 0.01
0x401be8 1 0.01
0x401bf0 1 0.01
0x401e88 1 0.01
0x401e90 1 0.01
0x401e98 1 0.01
0x401ea0 1 0.01
0x401ea8 1 0.01
0x401eb0 1 0.01
0x401eb8 1 0.01
0x401ec0 1 0.01
0x401ed0 4 0.05
0x401ed8 4 0.05
0x401ee0 4 0.05
0x401ee8 4 0.05
0x401ef0 4 0.05
0x401ef8 4 0.05
0x401f00 4 0.05
0x401f08 1 0.01
0x401f10 1 0.01
0x401f18 1 0.01
0x401f20 1 0.01
0x401f28 1 0.01
0x401f30 1 0.01
0x401f38 3 0.04
0x401f40 3 0.04
0x401f58 3 0.04
0x401f60 3 0.04
0x401f68 3 0.04
0x401f70 3 0.04
0x401f78 3 0.04
0x401f80 3 0.04
0x401f88 1 0.01
0x401f90 1 0.01
0x401f98 3 0.04
0x401fa0 3 0.04
0x401fa8 3 0.04
0x401fb0 3 0.04
0x401fc8 3 0.04
0x401fd0 3 0.04
0x401fd8 3 0.04
0x401fe0 3 0.04
0x402008 3 0.04
0x402010 3 0.04
0x402018 3 0.04
0x402020 2 0.02
0x402028 2 0.02
0x402030 2 0.02
0x402038 2 0.02
0x402040 2 0.02
0x402058 3 0.04
0x402060 3 0.04
0x402068 1 0.01
0x402070 1 0.01
0x402078 1 0.01
0x402080 1 0.01
0x402088 3 0.04
0x402090 3 0.04
0x402098 2 0.02
0x4020a0 2 0.02
0x4020a8 2 0.02
0x4020b0 2 0.02
0x4020b8 1 0.01
0x4020c0 1 0.01
0x4020c8 1 0.01
0x4020d0 1 0.01
0x4020d8 1 0.01
0x4020f8 1 0.01
0x402100 3 0.04
0x402108 3 0.04
0x402110 3 0.04
0x402118 4 0.05
0x402120 4 0.05
0x402128 4 0.05
0x402130 4 0.05
0x402138 4 0.05
0x402140 4 0.05
0x402170 1 0.01
0x402178 1 0.01
0x402180 1 0.01
0x402188 1 0.01
0x4021c0 1 0.01
0x4021c8 1 0.01
0x4021d0 1 0.01
0x4021d8 1 0.01
0x4021e0 1 0.01
0x4021e8 1 0.01
0x4021f0 2 0.02
0x4021f8 2 0.02
0x402200 2 0.02
0x402208 2 0.02
0x402210 2 0.02
0x402218 2 0.02
0x402220 2 0.02
0x402228 2 0.02
0x402230 1 0.01
0x402238 1 0.01
0x402240 1 0.01
0x402248 1 0.01
0x402250 1 0.01
0x402258 1 0.01
0x402260 1 0.01
0x402268 1 0.01
0x402270 1 0.01
0x402278 1 0.01
0x402280 1 0.01
0x402288 1 0.01
0x402290 1 0.01
0x402298 1 0.01
0x4022a0 1 0.01
0x4022a8 1 0.01
0x4022b0 1 0.01
0x4022b8 1 0.01
0x4022f8 1 0.01
0x402300 1 0.01
0x402308 1 0.01
0x402310 3 0.04
0x402318 3 0.04
0x402320 3 0.04
0x402328 3 0.04
0x402330 3 0.04
0x402338 3 0.04
0x402340 3 0.04
0x402348 3 0.04
0x402350 3 0.04
0x402358 3 0.04
0x402360 4 0.05
0x402368 4 0.05
0x402370 4 0.05
0x402378 4 0.05
0x402380 4 0.05
0x402388 4 0.05
0x402390 4 0.05
0x402398 4 0.05
0x4023a0 4 0.05
0x4023a8 4 0.05
0x4023d8 4 0.05
0x4023e0 4 0.05
0x4023e8 4 0.05
0x4023f0 390 4.84
0x4023f8 390 4.84
0x402400 390 4.84
0x402408 390 4.84
0x402410 390 4.84
0x402418 390 4.84
0x402420 390 4.84
0x402428 390 4.84
0x402430 390 4.84
0x402438 390 4.84
0x402440 390 4.84
0x402448 390 4.84
0x402450 4 0.05
0x402458 4 0.05
0x402460 4 0.05
0x402468 12 0.15
0x402470 12 0.15
0x402478 12 0.15
0x402480 12 0.15
0x402488 4 0.05
0x402490 4 0.05
0x4024b8 4 0.05
0x4024c0 4 0.05
0x402690 1 0.01
0x402698 1 0.01
0x4026a0 1 0.01
0x4026a8 1 0.01
0x4026b0 1 0.01
0x4026b8 1 0.01
0x4026c0 1 0.01
0x4026c8 1 0.01
0x4026d0 1 0.01
0x4026d8 1 0.01
0x4026e8 1 0.01
0x4026f0 1 0.01
0x4026f8 1 0.01
0x402700 1 0.01
0x402708 1 0.01
0x402710 1 0.01
0x402718 1 0.01
0x402720 1 0.01
0x402728 1 0.01
0x402730 1 0.01
0x402738 1 0.01
0x402740 1 0.01
0x402748 1 0.01
0x402750 1 0.01
0x402758 1 0.01
0x402760 1 0.01
0x402768 1 0.01
0x402770 1 0.01
0x402778 1 0.01
0x402780 1 0.01
0x402788 1 0.01
0x402790 1 0.01
0x402798 1 0.01
0x4027a0 1 0.01
0x4027a8 1 0.01
0x4027f8 1 0.01
0x402800 1 0.01
0x402808 1 0.01
0x402810 1 0.01
0x402818 1 0.01
0x402820 1 0.01
0x402828 1 0.01
0x402840 1 0.01
0x402848 1 0.01
0x402850 1 0.01
0x402858 1 0.01
0x402860 1 0.01
0x402868 1 0.01
0x402870 1 0.01
0x402878 1 0.01
0x402880 1 0.01
0x402888 1 0.01
0x402890 1 0.01
0x402898 1 0.01
0x4028a0 1 0.01
0x4028f0 1 0.01
0x4028f8 1 0.01
0x402900 1 0.01
0x402908 1 0.01
0x402910 1 0.01
0x402918 1 0.01
0x402920 1 0.01
0x402928 1 0.01
0x402930 1 0.01
0x402938 1 0.01
0x402940 1 0.01
0x402948 1 0.01
0x402950 1 0.01
0x402958 1 0.01
0x402960 1 0.01
0x402968 1 0.01
0x402970 1 0.01
0x402978 1 0.01
0x402980 1 0.01
0x402988 1 0.01
0x402990 1 0.01
0x402998 1 0.01
0x4029a0 1 0.01
0x4029a8 1 0.01
0x4029b0 1 0.01
0x4029b8 1 0.01
0x4029c0 1 0.01
0x4029c8 1 0.01
0x402a80 1 0.01
0x402a88 1 0.01
0x402a90 1 0.01
0x402a98 1 0.01
0x402aa0 1 0.01
0x402bf0 1 0.01
0x402bf8 1 0.01
0x402f08 1 0.01
0x402f10 1 0.01
0x402f18 1 0.01
0x402f20 1 0.01
0x402f28 1 0.01
0x402f30 1 0.01
0x402f38 1 0.01
0x402f40 1 0.01
0x402f48 1 0.01
0x402f50 1 0.01
0x402f58 1 0.01
0x402f60 1 0.01
0x402f88 1 0.01
0x402f90 1 0.01
0x402fc0 1 0.01
0x402fc8 1 0.01
0x402fd0 1 0.01
0x402fd8 1 0.01
0x403408 2 0.02
0x403410 2 0.02
0x403418 2 0.02
0x403420 2 0.02
0x403428 2 0.02
0x403430 2 0.02
0x403438 2 0.02
0x403440 2 0.02
0x403448 2 0.02
0x403450 2 0.02
0x403458 2 0.02
0x403460 2 0.02
0x403468 2 0.02
0x403470 2 0.02
0x403478 2 0.02
0x403480 2 0.02
0x403488 2 0.02
0x403490 2 0.02
0x403498 2 0.02
0x4034a0 2 0.02
0x4034a8 2 0.02
0x4034b0 2 0.02
0x4034b8 2 0.02
0x4034c0 2 0.02
0x4034c8 2 0.02
0x4034d0 2 0.02
0x4034d8 2 0.02
0x4034e0 2 0.02
0x403698 2 0.02
0x4036a0 2 0.02
0x4036a8 1 0.01
0x4036b0 1 0.01
0x4036b8 1 0.01
0x4036c0 1 0.01
0x4036c8 1 0.01
0x4036d0 1 0.01
0x4036d8 1 0.01
0x403740 2 0.02
0x403748 2 0.02
0x403750 2 0.02
0x403758 2 0.02
0x403790 2 0.02
0x403798 2 0.02
0x4037a0 2 0.02
0x4037a8 2 0.02
0x4037b0 2 0.02
0x4037b8 2 0.02
0x4037c0 2 0.02
0x4037c8 2 0.02
0x4037d0 2 0.02
0x4037d8 2 0.02
0x4037e0 2 0.02
0x403ae0 2 0.02
0x403ae8 2 0.02
0x403af0 2 0.02
0x403af8 2 0.02
0x403b00 2 0.02
0x403b08 2 0.02
0x403b10 2 0.02
0x403b18 2 0.02
0x403b20 2 0.02
0x403b38 2 0.02
0x403b40 2 0.02
0x403b48 2 0.02
0x403b50 2 0.02
0x403b58 2 0.02
0x403b60 2 0.02
0x403b68 2 0.02
0x403b70 2 0.02
0x403b78 2 0.02
0x403b80 2 0.02
0x403b88 2 0.02
0x404020 2 0.02
0x404028 2 0.02
0x404030 2 0.02
0x404038 2 0.02
0x404040 2 0.02
0x404048 2 0.02
0x404050 2 0.02
0x404058 2 0.02
0x404060 2 0.02
0x404068 2 0.02
0x404070 2 0.02
0x404078 2 0.02
0x404080 2 0.02
0x404088 2 0.02
0x404090 2 0.02
0x4040a8 2 0.02
0x4040b0 2 0.02
0x4040b8 2 0.02
0x4040c0 2 0.02
0x4040c8 2 0.02
0x4040d0 2 0.02
0x4040d8 2 0.02
0x404100 2 0.02
0x404108 2 0.02
0x404110 2 0.02
0x404118 2 0.02
0x404120 2 0.02
0x404158 2 0.02
0x404160 2 0.02
0x404168 2 0.02
0x404170 2 0.02
0x404178 2 0.02
0x404180 2 0.02
0x404188 2 0.02
0x404190 2 0.02
0x404198 2 0.02
0x4041a0 2 0.02
0x4041a8 2 0.02
0x4041b0 2 0.02
0x4041b8 2 0.02
0x4041c0 2 0.02
0x4041c8 2 0.02
0x4041d0 2 0.02
0x4041d8 2 0.02
0x4041e0 2 0.02
0x4041e8 2 0.02
0x4041f0 2 0.02
0x4041f8 2 0.02
0x404200 2 0.02
0x404208 2 0.02
0x404210 2 0.02
0x404218 2 0.02
0x404220 2 0.02
0x404228 2 0.02
0x404230 2 0.02
0x404238 2 0.02
0x404240 2 0.02
0x404248 1 0.01
0x404250 1 0.01
0x404268 1 0.01
0x404270 1 0.01
0x404278 1 0.01
0x404280 1 0.01
0x404288 1 0.01
0x404290 1 0.01
0x404298 1 0.01
0x4042d0 1 0.01
0x4042d8 1 0.01
0x4042e0 1 0.01
0x404308 2 0.02
0x404310 2 0.02
0x404318 2 0.02
0x404320 2 0.02
0x404328 2 0.02
0x404330 2 0.02
0x404338 2 0.02
0x404340 2 0.02
0x404348 2 0.02
0x404378 2 0.02
0x404440 2 0.02
0x404448 2 0.02
0x404450 2 0.02
0x404478 2 0.02
0x404480 2 0.02
0x404490 2 0.02
0x404498 2 0.02
0x4044a0 2 0.02
0x4044a8 2 0.02
0x4044b0 2 0.02
0x4044b8 2 0.02
0x4044e8 2 0.02
0x4044f0 2 0.02
0x4044f8 2 0.02
0x404500 2 0.02
0x404518 2 0.02
0x404520 2 0.02
0x404528 2 0.02
0x404530 2 0.02
0x404538 2 0.02
0x404540 2 0.02
0x404548 2 0.02
0x404550 2 0.02
0x404ae8 3 0.04
0x404af0 3 0.04
0x404af8 3 0.04
0x404b00 3 0.04
0x404b08 3 0.04
0x404b10 3 0.04
0x404b18 3 0.04
0x404b20 3 0.04
0x404b28 3 0.04
0x404b30 3 0.04
0x404b38 3 0.04
0x404b40 3 0.04
0x404b48 3 0.04
0x404b50 3 0.04
0x404b58 3 0.04
0x404d00 2 0.02
0x404d08 2 0.02
0x404d10 2 0.02
0x404d18 2 0.02
0x404d20 2 0.02
0x404d28 2 0.02
0x4051a0 3 0.04
0x4051a8 3 0.04
0x4051b0 3 0.04
0x4051b8 3 0.04
0x4051d0 3 0.04
0x4051d8 3 0.04
0x4051e0 3 0.04
0x4051e8 3 0.04
0x4051f0 3 0.04
0x4051f8 3 0.04
0x405200 3 0.04
0x405208 3 0.04
0x405210 3 0.04
0x405218 3 0.04
0x405220 3 0.04
0x405a80 2 0.02
0x405a88 2 0.02
0x405a90 2 0.02
0x405a98 2 0.02
0x405aa0 2 0.02
0x405aa8 2 0.02
0x405ab0 2 0.02
0x405ab8 2 0.02
0x405ac0 2 0.02
0x405ac8 2 0.02
0x405ad0 2 0.02
0x405ad8 1 0.01
0x405ae0 1 0.01
0x405ae8 1 0.01
0x405af0 1 0.01
0x405af8 1 0.01
0x405b00 1 0.01
0x405b08 1 0.01
0x405b10 1 0.01
0x405b38 1 0.01
0x405b40 1 0.01
0x405b80 1 0.01
0x405b88 1 0.01
0x405b90 2 0.02
0x405b98 2 0.02
0x405ba0 2 0.02
0x405ba8 2 0.02
0x405bb0 2 0.02
0x405c90 2 0.02
0x405c98 2 0.02
0x405ca0 2 0.02
0x405ca8 2 0.02
0x405cb0 2 0.02
0x405d40 3 0.04
0x405d48 3 0.04
0x405d50 3 0.04
0x405d60 3 0.04
0x405d68 3 0.04
0x405d70 3 0.04
0x405d78 3 0.04
0x405d80 3 0.04
0x405d88 3 0.04
0x405db0 1 0.01
0x405db8 1 0.01
0x405dc0 1 0.01
0x405dc8 1 0.01
0x405dd0 1 0.01
sim_num_insn_by_pc.end_dist

ld_text_base             0x00400000 # program text (code) segment base
ld_text_size                  24336 # program text (code) size in bytes
ld_data_base             0x10000000 # program initialized data segment base
ld_data_size                  21856 # program init'ed `.data' and uninit'ed `.bss' size in bytes
ld_stack_base            0x7fffc000 # program stack segment base (highest address in stack)
ld_stack_size                 16384 # program initial stack size
ld_prog_entry            0x00400140 # program entry point (initial PC)
ld_environ_base          0x7fff8000 # program environment base address address
ld_target_big_endian              0 # target executable endian-ness, non-zero if big endian
mem.page_count                   12 # total number of pages allocated
mem.page_mem                    48k # total size of memory pages allocated
mem.ptab_misses                  12 # total first level page table misses
mem.ptab_accesses            194550 # total page table accesses
mem.ptab_miss_rate           0.0001 # first level page table miss rate

+--------------------------------------------------------------+
| effective code range:         [0, fffffff8]                  |
| effective bpred count:        0                              |
| effective sim cycles:         0                              |
| effective bpred misses:       0                              |
| effective icache misses:      0                              |
+--------------------------------------------------------------+

