sim-profile: SimpleScalar/PISA Tool Set version 3.0 of August, 2003.
Copyright (c) 1994-2003 by Todd M. Austin, Ph.D. and SimpleScalar, LLC.
All Rights Reserved. This version of SimpleScalar is licensed for academic
non-commercial use.  No portion of this work may be used by any commercial
entity, or for any commercial purpose, without the prior written permission
of SimpleScalar, LLC (info@simplescalar.com).

sim: command line: /home/sudiptac/sudiptac/Work/simplesim-3.0/sim-profile -pcstat sim_num_insn adpcm 

sim: simulation started @ Sat May 16 17:00:56 2009, options follow:

sim-profile: This simulator implements a functional simulator with
profiling support.  Run with the `-h' flag to see profiling options
available.

# -config                     # load configuration from a file
# -dumpconfig                 # dump configuration to a file
# -h                    false # print help message    
# -v                    false # verbose operation     
# -d                    false # enable debug message  
# -i                    false # start in Dlite debugger
-seed                       1 # random number generator seed (0 for timer seed)
# -q                    false # initialize and terminate immediately
# -chkpt               <null> # restore EIO trace execution from <fname>
# -redir:sim           <null> # redirect simulator output to file (non-interactive only)
# -redir:prog          <null> # redirect simulated program output to file
-nice                       0 # simulator scheduling priority
-max:inst                   0 # maximum number of inst's to execute
-all                    false # enable all profile options
-iclass                 false # enable instruction class profiling
-iprof                  false # enable instruction profiling
-brprof                 false # enable branch instruction profiling
-amprof                 false # enable address mode profiling
-segprof                false # enable load/store address segment profiling
-tsymprof               false # enable text symbol profiling
-taddrprof              false # enable text address profiling
-dsymprof               false # enable data symbol profiling
-internal               false # include compiler-internal symbols during symbol profiling
# -pcstat        sim_num_insn # profile stat(s) against text addr's (mult uses ok)

sim: ** starting functional simulation **

sim: ** simulation statistics **
sim_num_insn                  10238 # total number of instructions executed
sim_num_refs                   4814 # total number of loads and stores executed
sim_elapsed_time                  1 # total simulation time in seconds
sim_inst_rate            10238.0000 # simulation speed (in insts/sec)

sim_num_insn_by_pc     # total number of instructions executed (by text address)
sim_num_insn_by_pc.count = 1588
sim_num_insn_by_pc.total = 10237
sim_num_insn_by_pc.imin = 0x400140
sim_num_insn_by_pc.imax = 0x407260
sim_num_insn_by_pc.average =   6.4465
sim_num_insn_by_pc.std_dev =  34.0094
sim_num_insn_by_pc.overflows = 0
# pdf == prob dist fn, cdf == cumulative dist fn
#          index      count    pdf 
sim_num_insn_by_pc.start_dist
0x400140 1 0.01
0x400148 1 0.01
0x400150 1 0.01
0x400158 1 0.01
0x400160 1 0.01
0x400168 1 0.01
0x400170 1 0.01
0x400178 1 0.01
0x400180 1 0.01
0x400188 1 0.01
0x400190 1 0.01
0x400198 1 0.01
0x4001a0 1 0.01
0x4001a8 1 0.01
0x4001b0 1 0.01
0x4001b8 1 0.01
0x4001c0 1 0.01
0x4001c8 1 0.01
0x4001d0 1 0.01
0x4001d8 1 0.01
0x4001e0 1 0.01
0x4001f0 4 0.04
0x4001f8 4 0.04
0x400200 1 0.01
0x400208 4 0.04
0x4004b0 2 0.02
0x4004b8 2 0.02
0x4004c0 2 0.02
0x4004c8 2 0.02
0x4004d0 2 0.02
0x4004d8 2 0.02
0x4004e0 2 0.02
0x4004e8 2 0.02
0x4004f0 2 0.02
0x4004f8 2 0.02
0x400500 2 0.02
0x400508 2 0.02
0x400510 2 0.02
0x400518 2 0.02
0x400520 2 0.02
0x400528 2 0.02
0x400530 2 0.02
0x400538 2 0.02
0x400540 2 0.02
0x400548 2 0.02
0x400550 2 0.02
0x400558 2 0.02
0x400560 2 0.02
0x400568 20 0.20
0x400570 20 0.20
0x400578 20 0.20
0x400580 20 0.20
0x400588 20 0.20
0x400590 20 0.20
0x400598 20 0.20
0x4005a0 20 0.20
0x4005a8 20 0.20
0x4005b0 20 0.20
0x4005b8 20 0.20
0x4005c0 20 0.20
0x4005c8 20 0.20
0x4005d0 20 0.20
0x4005d8 20 0.20
0x4005e0 20 0.20
0x4005e8 20 0.20
0x4005f0 2 0.02
0x4005f8 2 0.02
0x400600 2 0.02
0x400608 2 0.02
0x400610 2 0.02
0x400618 2 0.02
0x400620 2 0.02
0x400628 2 0.02
0x400630 2 0.02
0x400638 2 0.02
0x400640 2 0.02
0x400648 2 0.02
0x400650 2 0.02
0x400658 44 0.43
0x400660 44 0.43
0x400668 44 0.43
0x400670 44 0.43
0x400678 44 0.43
0x400680 44 0.43
0x400688 44 0.43
0x400690 2 0.02
0x400698 2 0.02
0x4006a0 2 0.02
0x4006a8 2 0.02
0x4006b0 2 0.02
0x4006b8 2 0.02
0x4006c0 2 0.02
0x4006c8 2 0.02
0x4006d0 2 0.02
0x4006d8 2 0.02
0x4006e0 2 0.02
0x4006e8 2 0.02
0x4006f0 2 0.02
0x4006f8 2 0.02
0x400700 2 0.02
0x400708 2 0.02
0x400710 2 0.02
0x400718 2 0.02
0x400720 2 0.02
0x400728 2 0.02
0x400730 2 0.02
0x400738 2 0.02
0x400740 2 0.02
0x400748 2 0.02
0x400750 2 0.02
0x400758 2 0.02
0x400760 2 0.02
0x400768 2 0.02
0x400770 2 0.02
0x400778 2 0.02
0x400780 2 0.02
0x400788 2 0.02
0x400790 2 0.02
0x400798 2 0.02
0x4007a0 2 0.02
0x4007a8 2 0.02
0x4007b0 2 0.02
0x4007b8 2 0.02
0x4007c0 2 0.02
0x4007c8 2 0.02
0x4007d0 2 0.02
0x4007d8 2 0.02
0x4007e0 2 0.02
0x4007e8 2 0.02
0x4007f0 2 0.02
0x4007f8 2 0.02
0x400800 2 0.02
0x400808 2 0.02
0x400810 2 0.02
0x400818 2 0.02
0x400820 2 0.02
0x400828 2 0.02
0x400830 2 0.02
0x400838 2 0.02
0x400840 2 0.02
0x400848 2 0.02
0x400850 2 0.02
0x400858 2 0.02
0x400860 2 0.02
0x400868 2 0.02
0x400870 2 0.02
0x400878 2 0.02
0x400880 2 0.02
0x400888 2 0.02
0x400890 2 0.02
0x400898 2 0.02
0x4008a0 2 0.02
0x4008a8 2 0.02
0x4008b0 2 0.02
0x4008b8 2 0.02
0x4008c0 2 0.02
0x4008c8 2 0.02
0x4008d0 2 0.02
0x4008d8 2 0.02
0x4008e0 2 0.02
0x4008e8 2 0.02
0x4008f0 2 0.02
0x4008f8 2 0.02
0x400900 2 0.02
0x400908 2 0.02
0x400910 2 0.02
0x400918 2 0.02
0x400920 2 0.02
0x400928 2 0.02
0x400930 2 0.02
0x400938 2 0.02
0x400940 2 0.02
0x400948 2 0.02
0x400950 2 0.02
0x400958 2 0.02
0x400960 2 0.02
0x400968 2 0.02
0x400970 2 0.02
0x400978 2 0.02
0x400980 2 0.02
0x400988 2 0.02
0x400990 2 0.02
0x400998 2 0.02
0x4009a0 2 0.02
0x4009a8 2 0.02
0x4009b0 2 0.02
0x4009b8 2 0.02
0x4009c8 2 0.02
0x4009d0 2 0.02
0x4009d8 2 0.02
0x4009e0 2 0.02
0x4009e8 2 0.02
0x4009f0 2 0.02
0x4009f8 2 0.02
0x400a00 2 0.02
0x400a08 2 0.02
0x400a10 2 0.02
0x400a18 2 0.02
0x400a20 2 0.02
0x400a28 2 0.02
0x400a30 2 0.02
0x400a50 2 0.02
0x400a58 2 0.02
0x400a60 2 0.02
0x400a68 2 0.02
0x400a70 2 0.02
0x400a78 2 0.02
0x400a80 2 0.02
0x400a88 2 0.02
0x400a90 2 0.02
0x400a98 2 0.02
0x400aa0 2 0.02
0x400aa8 2 0.02
0x400ab0 2 0.02
0x400ab8 2 0.02
0x400ac0 2 0.02
0x400ac8 2 0.02
0x400ad0 2 0.02
0x400ad8 2 0.02
0x400ae0 2 0.02
0x400ae8 2 0.02
0x400af0 2 0.02
0x400af8 2 0.02
0x400b00 2 0.02
0x400b08 2 0.02
0x400b10 2 0.02
0x400b18 2 0.02
0x400b20 2 0.02
0x400b28 2 0.02
0x400b30 2 0.02
0x400b38 2 0.02
0x400b40 2 0.02
0x400b48 2 0.02
0x400b50 2 0.02
0x400b58 2 0.02
0x400b60 2 0.02
0x400b68 2 0.02
0x400b70 2 0.02
0x400b78 2 0.02
0x400b80 2 0.02
0x400b88 2 0.02
0x400b90 2 0.02
0x400b98 2 0.02
0x400ba0 2 0.02
0x400ba8 2 0.02
0x400bb0 2 0.02
0x400bb8 2 0.02
0x400bc0 2 0.02
0x400bc8 2 0.02
0x400bd0 2 0.02
0x400bd8 2 0.02
0x400be0 2 0.02
0x400be8 2 0.02
0x400bf0 2 0.02
0x400bf8 2 0.02
0x400c00 2 0.02
0x400c08 2 0.02
0x400c10 2 0.02
0x400c18 2 0.02
0x400c20 2 0.02
0x400c28 2 0.02
0x400c30 2 0.02
0x400c38 2 0.02
0x400c40 2 0.02
0x400c48 2 0.02
0x400c50 2 0.02
0x400c58 2 0.02
0x400c60 2 0.02
0x400c68 2 0.02
0x400c70 2 0.02
0x400c78 2 0.02
0x400c80 2 0.02
0x400c88 2 0.02
0x400c90 2 0.02
0x400c98 2 0.02
0x400ca0 2 0.02
0x400ca8 2 0.02
0x400cb0 2 0.02
0x400cb8 2 0.02
0x400cc0 2 0.02
0x400cc8 2 0.02
0x400cd0 2 0.02
0x400cd8 2 0.02
0x400ce0 2 0.02
0x400ce8 2 0.02
0x400cf0 2 0.02
0x400cf8 2 0.02
0x400d00 2 0.02
0x400d08 2 0.02
0x400d10 2 0.02
0x400d18 2 0.02
0x400d20 2 0.02
0x400d28 2 0.02
0x400d30 2 0.02
0x400d38 2 0.02
0x400d40 2 0.02
0x400d48 2 0.02
0x400d50 2 0.02
0x400d58 2 0.02
0x400d60 2 0.02
0x400d68 2 0.02
0x400d70 2 0.02
0x400d78 2 0.02
0x400d80 2 0.02
0x400d88 2 0.02
0x400d90 2 0.02
0x400d98 2 0.02
0x400da0 2 0.02
0x400da8 2 0.02
0x400db0 2 0.02
0x400db8 2 0.02
0x400dc0 2 0.02
0x400dc8 2 0.02
0x400dd0 2 0.02
0x400dd8 2 0.02
0x400de0 2 0.02
0x400de8 2 0.02
0x400df0 2 0.02
0x400df8 2 0.02
0x400e00 2 0.02
0x400e08 2 0.02
0x400e10 2 0.02
0x400e18 2 0.02
0x400e20 2 0.02
0x400e28 2 0.02
0x400e30 2 0.02
0x400e38 2 0.02
0x400e40 2 0.02
0x400e48 2 0.02
0x400e50 2 0.02
0x400e58 2 0.02
0x400e60 2 0.02
0x400e68 2 0.02
0x400e70 2 0.02
0x400e78 2 0.02
0x400e80 2 0.02
0x400e88 2 0.02
0x400e90 2 0.02
0x400e98 2 0.02
0x400ea0 2 0.02
0x400ea8 2 0.02
0x400eb0 2 0.02
0x400eb8 2 0.02
0x400ec0 2 0.02
0x400ec8 2 0.02
0x400ed0 2 0.02
0x400ed8 2 0.02
0x400ee0 2 0.02
0x400ee8 2 0.02
0x400ef0 2 0.02
0x400ef8 2 0.02
0x400f00 2 0.02
0x400f08 2 0.02
0x400f10 2 0.02
0x400f18 2 0.02
0x400f20 2 0.02
0x400f28 2 0.02
0x400f30 2 0.02
0x400f38 2 0.02
0x400f40 2 0.02
0x400f48 2 0.02
0x400f50 2 0.02
0x400f58 2 0.02
0x400f60 2 0.02
0x400f68 2 0.02
0x400f70 2 0.02
0x400f78 2 0.02
0x400f80 2 0.02
0x400f88 2 0.02
0x400f90 2 0.02
0x400f98 2 0.02
0x400fa0 2 0.02
0x400fa8 2 0.02
0x400fb0 2 0.02
0x400fb8 2 0.02
0x400fc0 2 0.02
0x400fc8 2 0.02
0x400fd0 2 0.02
0x400fd8 2 0.02
0x400fe0 2 0.02
0x400fe8 2 0.02
0x400ff0 2 0.02
0x400ff8 2 0.02
0x401000 2 0.02
0x401008 2 0.02
0x401010 2 0.02
0x401018 2 0.02
0x401020 2 0.02
0x401028 2 0.02
0x401030 2 0.02
0x401038 2 0.02
0x401040 2 0.02
0x401048 2 0.02
0x401050 2 0.02
0x401058 2 0.02
0x401060 2 0.02
0x401068 2 0.02
0x401070 2 0.02
0x401078 2 0.02
0x401080 2 0.02
0x401088 2 0.02
0x401090 2 0.02
0x401098 2 0.02
0x4010a0 2 0.02
0x4010a8 2 0.02
0x4010b0 2 0.02
0x4010b8 2 0.02
0x4010c0 2 0.02
0x4010c8 2 0.02
0x4010d0 2 0.02
0x4010d8 2 0.02
0x4010e0 2 0.02
0x4010e8 2 0.02
0x4010f0 2 0.02
0x4010f8 2 0.02
0x401100 2 0.02
0x401108 2 0.02
0x401110 2 0.02
0x401118 2 0.02
0x401120 2 0.02
0x401128 2 0.02
0x401130 2 0.02
0x401138 2 0.02
0x401140 2 0.02
0x401148 2 0.02
0x401150 2 0.02
0x401158 2 0.02
0x401160 2 0.02
0x401168 2 0.02
0x401170 2 0.02
0x401178 2 0.02
0x401180 2 0.02
0x401188 2 0.02
0x401190 2 0.02
0x401198 20 0.20
0x4011a0 20 0.20
0x4011a8 20 0.20
0x4011b0 20 0.20
0x4011b8 20 0.20
0x4011c0 20 0.20
0x4011c8 20 0.20
0x4011d0 20 0.20
0x4011d8 20 0.20
0x4011e0 20 0.20
0x4011e8 20 0.20
0x4011f0 20 0.20
0x4011f8 20 0.20
0x401200 20 0.20
0x401208 20 0.20
0x401210 20 0.20
0x401218 20 0.20
0x401220 2 0.02
0x401228 2 0.02
0x401230 2 0.02
0x401238 2 0.02
0x401240 2 0.02
0x401248 2 0.02
0x401250 2 0.02
0x401258 2 0.02
0x401260 2 0.02
0x401268 2 0.02
0x401270 2 0.02
0x401278 2 0.02
0x401280 2 0.02
0x401288 2 0.02
0x401290 2 0.02
0x401298 2 0.02
0x4012a0 2 0.02
0x4012a8 20 0.20
0x4012b0 20 0.20
0x4012b8 20 0.20
0x4012c0 20 0.20
0x4012c8 20 0.20
0x4012d0 20 0.20
0x4012d8 20 0.20
0x4012e0 20 0.20
0x4012e8 20 0.20
0x4012f0 20 0.20
0x4012f8 20 0.20
0x401300 2 0.02
0x401308 2 0.02
0x401310 2 0.02
0x401318 2 0.02
0x401320 2 0.02
0x401328 2 0.02
0x401330 2 0.02
0x401338 2 0.02
0x401340 2 0.02
0x401348 1 0.01
0x401350 1 0.01
0x401358 1 0.01
0x401360 1 0.01
0x401368 1 0.01
0x401370 1 0.01
0x401378 1 0.01
0x401380 1 0.01
0x401388 1 0.01
0x401390 1 0.01
0x401398 1 0.01
0x4013a0 1 0.01
0x4013a8 1 0.01
0x4013b0 1 0.01
0x4013b8 1 0.01
0x4013c0 1 0.01
0x4013c8 1 0.01
0x4013d0 1 0.01
0x4013d8 1 0.01
0x4013e0 1 0.01
0x4013e8 1 0.01
0x4013f0 1 0.01
0x4013f8 1 0.01
0x401400 1 0.01
0x401408 1 0.01
0x401410 1 0.01
0x401418 1 0.01
0x401420 1 0.01
0x401428 1 0.01
0x401430 1 0.01
0x401438 1 0.01
0x401440 1 0.01
0x401448 1 0.01
0x401450 1 0.01
0x401458 1 0.01
0x401460 1 0.01
0x401468 1 0.01
0x401470 1 0.01
0x401478 1 0.01
0x401480 1 0.01
0x401488 1 0.01
0x401490 1 0.01
0x401498 1 0.01
0x4014a0 6 0.06
0x4014a8 6 0.06
0x4014b0 6 0.06
0x4014b8 6 0.06
0x4014c0 6 0.06
0x4014c8 6 0.06
0x4014d0 6 0.06
0x4014d8 6 0.06
0x4014e0 6 0.06
0x4014e8 6 0.06
0x4014f0 6 0.06
0x4014f8 1 0.01
0x401500 1 0.01
0x401508 1 0.01
0x401510 1 0.01
0x401518 1 0.01
0x401520 1 0.01
0x401528 1 0.01
0x401530 1 0.01
0x401538 1 0.01
0x401540 6 0.06
0x401548 6 0.06
0x401550 6 0.06
0x401558 6 0.06
0x401560 6 0.06
0x401568 6 0.06
0x401570 6 0.06
0x401578 6 0.06
0x401580 6 0.06
0x401588 6 0.06
0x401590 6 0.06
0x401598 1 0.01
0x4015a0 1 0.01
0x4015a8 1 0.01
0x4015b0 23 0.22
0x4015b8 23 0.22
0x4015c0 23 0.22
0x4015c8 23 0.22
0x4015d0 1 0.01
0x4015d8 1 0.01
0x4015e0 1 0.01
0x4015e8 1 0.01
0x4015f0 1 0.01
0x4015f8 11 0.11
0x401600 11 0.11
0x401608 11 0.11
0x401610 11 0.11
0x401618 11 0.11
0x401620 11 0.11
0x401628 11 0.11
0x401630 1 0.01
0x401638 8 0.08
0x401640 8 0.08
0x401648 8 0.08
0x401650 8 0.08
0x401658 8 0.08
0x401660 8 0.08
0x401668 8 0.08
0x401670 40 0.39
0x401678 40 0.39
0x401680 40 0.39
0x401688 40 0.39
0x401690 40 0.39
0x401698 40 0.39
0x4016a0 40 0.39
0x4016a8 40 0.39
0x4016b0 40 0.39
0x4016b8 40 0.39
0x4016c0 8 0.08
0x4016c8 8 0.08
0x4016d0 8 0.08
0x4016d8 8 0.08
0x4016e0 8 0.08
0x4016e8 8 0.08
0x4016f0 8 0.08
0x4016f8 8 0.08
0x401700 8 0.08
0x401708 8 0.08
0x401710 8 0.08
0x401718 2 0.02
0x401720 2 0.02
0x401728 2 0.02
0x401730 2 0.02
0x401738 2 0.02
0x401740 2 0.02
0x401748 2 0.02
0x401750 2 0.02
0x401758 2 0.02
0x401760 2 0.02
0x401768 2 0.02
0x401770 5 0.05
0x401778 5 0.05
0x401780 5 0.05
0x401788 5 0.05
0x401790 5 0.05
0x401798 5 0.05
0x4017a0 3 0.03
0x4017a8 3 0.03
0x4017b0 3 0.03
0x4017b8 3 0.03
0x4017c0 2 0.02
0x4017c8 1 0.01
0x4017d0 1 0.01
0x4017d8 1 0.01
0x4017e0 1 0.01
0x4017e8 1 0.01
0x4017f0 1 0.01
0x4017f8 1 0.01
0x401800 1 0.01
0x401808 1 0.01
0x401810 2 0.02
0x401818 2 0.02
0x401820 2 0.02
0x401828 2 0.02
0x401830 2 0.02
0x401838 4 0.04
0x401840 4 0.04
0x401848 4 0.04
0x401850 4 0.04
0x401858 4 0.04
0x401860 4 0.04
0x401868 4 0.04
0x401870 4 0.04
0x401878 4 0.04
0x401880 4 0.04
0x401888 4 0.04
0x401890 4 0.04
0x401898 4 0.04
0x4018a8 4 0.04
0x4018b0 4 0.04
0x4018b8 8 0.08
0x4018c0 8 0.08
0x4018c8 8 0.08
0x4018d0 8 0.08
0x4018d8 8 0.08
0x4018e0 8 0.08
0x4018e8 8 0.08
0x4018f0 8 0.08
0x4018f8 8 0.08
0x401900 8 0.08
0x401908 8 0.08
0x401910 8 0.08
0x401918 8 0.08
0x401920 8 0.08
0x401928 6 0.06
0x401930 36 0.35
0x401938 36 0.35
0x401940 36 0.35
0x401948 36 0.35
0x401950 36 0.35
0x401958 36 0.35
0x401960 36 0.35
0x401968 36 0.35
0x401970 36 0.35
0x401978 6 0.06
0x401980 2 0.02
0x401988 2 0.02
0x401990 12 0.12
0x401998 12 0.12
0x4019a0 12 0.12
0x4019a8 12 0.12
0x4019b0 12 0.12
0x4019b8 12 0.12
0x4019c0 12 0.12
0x4019c8 12 0.12
0x4019d0 12 0.12
0x4019d8 12 0.12
0x4019e0 12 0.12
0x4019e8 12 0.12
0x4019f0 12 0.12
0x4019f8 12 0.12
0x401a00 12 0.12
0x401a08 12 0.12
0x401a10 12 0.12
0x401a18 8 0.08
0x401a20 8 0.08
0x401a28 8 0.08
0x401a30 8 0.08
0x401a38 8 0.08
0x401a40 8 0.08
0x401a48 8 0.08
0x401a50 8 0.08
0x401a58 8 0.08
0x401a60 8 0.08
0x401a68 8 0.08
0x401a70 8 0.08
0x401a78 8 0.08
0x401a80 8 0.08
0x401a88 8 0.08
0x401a90 8 0.08
0x401a98 8 0.08
0x401aa0 8 0.08
0x401aa8 8 0.08
0x401ab0 8 0.08
0x401ab8 8 0.08
0x401ac0 8 0.08
0x401ad0 8 0.08
0x401ad8 8 0.08
0x401ae0 8 0.08
0x401ae8 8 0.08
0x401af0 8 0.08
0x401af8 8 0.08
0x401b08 8 0.08
0x401b10 8 0.08
0x401b20 8 0.08
0x401b28 8 0.08
0x401b30 8 0.08
0x401b38 8 0.08
0x401b40 8 0.08
0x401b48 8 0.08
0x401b50 8 0.08
0x401b58 8 0.08
0x401b60 8 0.08
0x401b68 8 0.08
0x401b78 8 0.08
0x401b80 8 0.08
0x401b88 8 0.08
0x401b90 8 0.08
0x401ba0 8 0.08
0x401ba8 8 0.08
0x401bb0 8 0.08
0x401bc0 8 0.08
0x401bc8 8 0.08
0x401bd0 4 0.04
0x401bd8 4 0.04
0x401be0 4 0.04
0x401be8 4 0.04
0x401bf0 4 0.04
0x401bf8 4 0.04
0x401c00 4 0.04
0x401c08 4 0.04
0x401c10 4 0.04
0x401c18 4 0.04
0x401c20 4 0.04
0x401c28 4 0.04
0x401c38 4 0.04
0x401c40 4 0.04
0x401c48 1 0.01
0x401c50 1 0.01
0x401c58 1 0.01
0x401c60 1 0.01
0x401c68 1 0.01
0x401c70 1 0.01
0x401c78 1 0.01
0x401c80 1 0.01
0x401c88 1 0.01
0x401c90 1 0.01
0x401c98 1 0.01
0x401ca0 3 0.03
0x401ca8 3 0.03
0x401cb0 3 0.03
0x401cb8 3 0.03
0x401cc0 1 0.01
0x401cc8 1 0.01
0x401cd0 1 0.01
0x401cd8 1 0.01
0x401ce0 1 0.01
0x401ce8 1 0.01
0x401cf0 1 0.01
0x401cf8 2 0.02
0x401d00 2 0.02
0x401d08 2 0.02
0x401d10 2 0.02
0x401d18 2 0.02
0x401d20 2 0.02
0x401d28 2 0.02
0x401d30 2 0.02
0x401d38 2 0.02
0x401d40 2 0.02
0x401d48 2 0.02
0x401d50 2 0.02
0x401d58 2 0.02
0x401d60 2 0.02
0x401d68 1 0.01
0x401d70 1 0.01
0x401d78 1 0.01
0x401d80 1 0.01
0x401d88 1 0.01
0x401d90 1 0.01
0x401d98 1 0.01
0x401da0 2 0.02
0x401da8 2 0.02
0x401db0 2 0.02
0x401db8 2 0.02
0x401dc0 2 0.02
0x401dc8 2 0.02
0x401dd0 2 0.02
0x401dd8 2 0.02
0x401de0 2 0.02
0x401de8 2 0.02
0x401df0 2 0.02
0x401df8 2 0.02
0x401e00 2 0.02
0x401e08 2 0.02
0x401e10 2 0.02
0x401e18 2 0.02
0x401e20 1 0.01
0x401e28 1 0.01
0x401e30 1 0.01
0x401e38 1 0.01
0x401e40 1 0.01
0x401e48 1 0.01
0x401e50 1 0.01
0x401e58 1 0.01
0x401e60 1 0.01
0x401e68 1 0.01
0x401e70 1 0.01
0x401e78 1 0.01
0x401e80 1 0.01
0x401e88 1 0.01
0x401e90 1 0.01
0x401ea0 1 0.01
0x401ea8 1 0.01
0x401eb0 1 0.01
0x401eb8 1 0.01
0x401ec0 1 0.01
0x401ec8 1 0.01
0x401ed0 1 0.01
0x401ed8 1 0.01
0x401ee0 1 0.01
0x401ee8 1 0.01
0x401ef0 1 0.01
0x401ef8 1 0.01
0x401f00 1 0.01
0x401f08 1 0.01
0x401f10 1 0.01
0x401f18 1 0.01
0x401f20 1 0.01
0x401f28 1 0.01
0x401f30 1 0.01
0x401f38 1 0.01
0x401f40 1 0.01
0x401f48 1 0.01
0x401f50 1 0.01
0x402000 1 0.01
0x402008 1 0.01
0x402010 1 0.01
0x402018 1 0.01
0x402020 1 0.01
0x402070 1 0.01
0x402078 1 0.01
0x402080 1 0.01
0x402088 1 0.01
0x402090 1 0.01
0x402098 1 0.01
0x4020a0 1 0.01
0x4020a8 1 0.01
0x4020b0 1 0.01
0x4020b8 1 0.01
0x4020c0 1 0.01
0x4020c8 1 0.01
0x4020d8 1 0.01
0x4020e0 1 0.01
0x4020e8 1 0.01
0x4020f0 1 0.01
0x4020f8 1 0.01
0x402310 1 0.01
0x402318 1 0.01
0x402320 1 0.01
0x402328 1 0.01
0x402330 1 0.01
0x402338 1 0.01
0x402340 1 0.01
0x402360 1 0.01
0x402380 1 0.01
0x402388 1 0.01
0x402390 1 0.01
0x402398 1 0.01
0x4023a0 1 0.01
0x4023a8 1 0.01
0x4023c8 1 0.01
0x4023d0 1 0.01
0x4023d8 1 0.01
0x4023e0 1 0.01
0x402400 1 0.01
0x402408 1 0.01
0x402410 1 0.01
0x402418 1 0.01
0x402420 1 0.01
0x402428 1 0.01
0x402430 1 0.01
0x402438 1 0.01
0x402440 1 0.01
0x402448 1 0.01
0x402450 1 0.01
0x402458 1 0.01
0x402460 1 0.01
0x402468 1 0.01
0x402470 1 0.01
0x402478 1 0.01
0x402480 1 0.01
0x402488 1 0.01
0x402490 1 0.01
0x402498 1 0.01
0x4024a0 1 0.01
0x4024a8 1 0.01
0x4024b0 1 0.01
0x4024b8 1 0.01
0x4024c8 1 0.01
0x4024d0 1 0.01
0x4024d8 1 0.01
0x4024e0 1 0.01
0x4024e8 1 0.01
0x4024f0 1 0.01
0x4024f8 1 0.01
0x402500 1 0.01
0x402508 1 0.01
0x402510 1 0.01
0x402518 1 0.01
0x402520 1 0.01
0x402528 1 0.01
0x402530 1 0.01
0x402538 1 0.01
0x402540 1 0.01
0x402548 1 0.01
0x402550 1 0.01
0x402558 1 0.01
0x402560 1 0.01
0x402568 1 0.01
0x402570 1 0.01
0x402578 1 0.01
0x402580 1 0.01
0x402588 1 0.01
0x402598 1 0.01
0x4025a0 1 0.01
0x4025a8 1 0.01
0x4025b0 1 0.01
0x4025b8 1 0.01
0x4025c0 1 0.01
0x4025c8 1 0.01
0x4025d0 1 0.01
0x4025d8 1 0.01
0x4025e0 1 0.01
0x4025e8 1 0.01
0x4025f0 1 0.01
0x4025f8 1 0.01
0x402600 1 0.01
0x402608 1 0.01
0x402610 1 0.01
0x402618 1 0.01
0x402648 1 0.01
0x402650 1 0.01
0x402660 1 0.01
0x402668 1 0.01
0x402680 1 0.01
0x402688 1 0.01
0x402690 1 0.01
0x402698 1 0.01
0x4026a8 1 0.01
0x4026b0 1 0.01
0x4026b8 1 0.01
0x4026c0 1 0.01
0x4026c8 1 0.01
0x402950 1 0.01
0x402958 1 0.01
0x402960 1 0.01
0x402968 1 0.01
0x402978 1 0.01
0x402980 1 0.01
0x402988 1 0.01
0x402990 1 0.01
0x402998 1 0.01
0x4029a0 1 0.01
0x4029a8 1 0.01
0x4029b0 1 0.01
0x4029b8 1 0.01
0x4029c0 1 0.01
0x4029c8 1 0.01
0x4029d0 1 0.01
0x4029d8 1 0.01
0x4029e0 1 0.01
0x4029e8 1 0.01
0x4029f0 1 0.01
0x4029f8 1 0.01
0x402a00 1 0.01
0x402a08 1 0.01
0x402a10 1 0.01
0x402a18 1 0.01
0x402a20 1 0.01
0x402a38 1 0.01
0x402a40 1 0.01
0x402a48 1 0.01
0x402a50 1 0.01
0x402a58 1 0.01
0x402a60 1 0.01
0x402a70 1 0.01
0x402a78 1 0.01
0x402e10 1 0.01
0x402e18 1 0.01
0x402e20 1 0.01
0x402e28 1 0.01
0x402e30 1 0.01
0x402e38 1 0.01
0x402e40 1 0.01
0x402e48 1 0.01
0x402e50 1 0.01
0x402e58 1 0.01
0x402e60 1 0.01
0x402e68 1 0.01
0x402e70 1 0.01
0x402e78 1 0.01
0x402e80 1 0.01
0x402e88 1 0.01
0x402e90 1 0.01
0x402e98 1 0.01
0x402ea0 1 0.01
0x402ea8 1 0.01
0x402eb0 1 0.01
0x402eb8 1 0.01
0x402ec0 1 0.01
0x402ec8 1 0.01
0x402ed0 1 0.01
0x402ed8 1 0.01
0x402fc0 1 0.01
0x402fc8 1 0.01
0x402fd0 1 0.01
0x402fd8 1 0.01
0x402fe0 1 0.01
0x402fe8 1 0.01
0x402ff0 1 0.01
0x403000 1 0.01
0x403008 1 0.01
0x403010 1 0.01
0x403018 1 0.01
0x403020 1 0.01
0x403028 1 0.01
0x403030 1 0.01
0x403038 1 0.01
0x403040 1 0.01
0x403048 1 0.01
0x403050 1 0.01
0x403058 1 0.01
0x403060 1 0.01
0x403068 1 0.01
0x403070 1 0.01
0x403078 1 0.01
0x403080 1 0.01
0x403318 1 0.01
0x403320 1 0.01
0x403328 1 0.01
0x403330 1 0.01
0x403338 1 0.01
0x403340 1 0.01
0x403348 1 0.01
0x403350 1 0.01
0x403360 4 0.04
0x403368 4 0.04
0x403370 4 0.04
0x403378 4 0.04
0x403380 4 0.04
0x403388 4 0.04
0x403390 4 0.04
0x403398 1 0.01
0x4033a0 1 0.01
0x4033a8 1 0.01
0x4033b0 1 0.01
0x4033b8 1 0.01
0x4033c0 1 0.01
0x4033c8 3 0.03
0x4033d0 3 0.03
0x4033e8 3 0.03
0x4033f0 3 0.03
0x4033f8 3 0.03
0x403400 3 0.03
0x403408 3 0.03
0x403410 3 0.03
0x403418 1 0.01
0x403420 1 0.01
0x403428 3 0.03
0x403430 3 0.03
0x403438 3 0.03
0x403440 3 0.03
0x403458 3 0.03
0x403460 3 0.03
0x403468 3 0.03
0x403470 3 0.03
0x403498 3 0.03
0x4034a0 3 0.03
0x4034a8 3 0.03
0x4034b0 2 0.02
0x4034b8 2 0.02
0x4034c0 2 0.02
0x4034c8 2 0.02
0x4034d0 2 0.02
0x4034e8 3 0.03
0x4034f0 3 0.03
0x4034f8 1 0.01
0x403500 1 0.01
0x403508 1 0.01
0x403510 1 0.01
0x403518 3 0.03
0x403520 3 0.03
0x403528 2 0.02
0x403530 2 0.02
0x403538 2 0.02
0x403540 2 0.02
0x403548 1 0.01
0x403550 1 0.01
0x403558 1 0.01
0x403560 1 0.01
0x403568 1 0.01
0x403588 1 0.01
0x403590 3 0.03
0x403598 3 0.03
0x4035a0 3 0.03
0x4035a8 4 0.04
0x4035b0 4 0.04
0x4035b8 4 0.04
0x4035c0 4 0.04
0x4035c8 4 0.04
0x4035d0 4 0.04
0x403600 1 0.01
0x403608 1 0.01
0x403610 1 0.01
0x403618 1 0.01
0x403650 1 0.01
0x403658 1 0.01
0x403660 1 0.01
0x403668 1 0.01
0x403670 1 0.01
0x403678 1 0.01
0x403680 2 0.02
0x403688 2 0.02
0x403690 2 0.02
0x403698 2 0.02
0x4036a0 2 0.02
0x4036a8 2 0.02
0x4036b0 2 0.02
0x4036b8 2 0.02
0x4036c0 1 0.01
0x4036c8 1 0.01
0x4036d0 1 0.01
0x4036d8 1 0.01
0x4036e0 1 0.01
0x4036e8 1 0.01
0x4036f0 1 0.01
0x4036f8 1 0.01
0x403700 1 0.01
0x403708 1 0.01
0x403710 1 0.01
0x403718 1 0.01
0x403720 1 0.01
0x403728 1 0.01
0x403788 1 0.01
0x403790 1 0.01
0x403798 1 0.01
0x4037a0 3 0.03
0x4037a8 3 0.03
0x4037b0 3 0.03
0x4037b8 3 0.03
0x4037c0 3 0.03
0x4037c8 3 0.03
0x4037d0 3 0.03
0x4037d8 3 0.03
0x4037e0 3 0.03
0x4037e8 3 0.03
0x4037f0 4 0.04
0x4037f8 4 0.04
0x403800 4 0.04
0x403808 4 0.04
0x403810 4 0.04
0x403818 4 0.04
0x403820 4 0.04
0x403828 4 0.04
0x403830 4 0.04
0x403838 4 0.04
0x403868 4 0.04
0x403870 4 0.04
0x403878 4 0.04
0x403880 390 3.81
0x403888 390 3.81
0x403890 390 3.81
0x403898 390 3.81
0x4038a0 390 3.81
0x4038a8 390 3.81
0x4038b0 390 3.81
0x4038b8 390 3.81
0x4038c0 390 3.81
0x4038c8 390 3.81
0x4038d0 390 3.81
0x4038d8 390 3.81
0x4038e0 4 0.04
0x4038e8 4 0.04
0x4038f0 4 0.04
0x4038f8 12 0.12
0x403900 12 0.12
0x403908 12 0.12
0x403910 12 0.12
0x403918 4 0.04
0x403920 4 0.04
0x403948 4 0.04
0x403950 4 0.04
0x403b20 1 0.01
0x403b28 1 0.01
0x403b30 1 0.01
0x403b38 1 0.01
0x403b40 1 0.01
0x403b48 1 0.01
0x403b50 1 0.01
0x403b58 1 0.01
0x403b60 1 0.01
0x403b68 1 0.01
0x403b78 1 0.01
0x403b80 1 0.01
0x403b88 1 0.01
0x403b90 1 0.01
0x403b98 1 0.01
0x403ba0 1 0.01
0x403ba8 1 0.01
0x403bb0 1 0.01
0x403bb8 1 0.01
0x403bc0 1 0.01
0x403bc8 1 0.01
0x403bd0 1 0.01
0x403bd8 1 0.01
0x403be0 1 0.01
0x403be8 1 0.01
0x403bf0 1 0.01
0x403bf8 1 0.01
0x403c00 1 0.01
0x403c08 1 0.01
0x403c10 1 0.01
0x403c18 1 0.01
0x403c20 1 0.01
0x403c28 1 0.01
0x403c30 1 0.01
0x403c38 1 0.01
0x403c88 1 0.01
0x403c90 1 0.01
0x403c98 1 0.01
0x403ca0 1 0.01
0x403ca8 1 0.01
0x403cb0 1 0.01
0x403cb8 1 0.01
0x403cd0 1 0.01
0x403cd8 1 0.01
0x403ce0 1 0.01
0x403ce8 1 0.01
0x403cf0 1 0.01
0x403cf8 1 0.01
0x403d00 1 0.01
0x403d08 1 0.01
0x403d10 1 0.01
0x403d18 1 0.01
0x403d20 1 0.01
0x403d28 1 0.01
0x403d30 1 0.01
0x403d80 1 0.01
0x403d88 1 0.01
0x403d90 1 0.01
0x403d98 1 0.01
0x403da0 1 0.01
0x403da8 1 0.01
0x403db0 1 0.01
0x403db8 1 0.01
0x403dc0 1 0.01
0x403dc8 1 0.01
0x403dd0 1 0.01
0x403dd8 1 0.01
0x403de0 1 0.01
0x403de8 1 0.01
0x403df0 1 0.01
0x403df8 1 0.01
0x403e00 1 0.01
0x403e08 1 0.01
0x403e10 1 0.01
0x403e18 1 0.01
0x403e20 1 0.01
0x403e28 1 0.01
0x403e30 1 0.01
0x403e38 1 0.01
0x403e40 1 0.01
0x403e48 1 0.01
0x403e50 1 0.01
0x403e58 1 0.01
0x403f10 1 0.01
0x403f18 1 0.01
0x403f20 1 0.01
0x403f28 1 0.01
0x403f30 1 0.01
0x404080 1 0.01
0x404088 1 0.01
0x404398 1 0.01
0x4043a0 1 0.01
0x4043a8 1 0.01
0x4043b0 1 0.01
0x4043b8 1 0.01
0x4043c0 1 0.01
0x4043c8 1 0.01
0x4043d0 1 0.01
0x4043d8 1 0.01
0x4043e0 1 0.01
0x4043e8 1 0.01
0x4043f0 1 0.01
0x404418 1 0.01
0x404420 1 0.01
0x404450 1 0.01
0x404458 1 0.01
0x404460 1 0.01
0x404468 1 0.01
0x404898 2 0.02
0x4048a0 2 0.02
0x4048a8 2 0.02
0x4048b0 2 0.02
0x4048b8 2 0.02
0x4048c0 2 0.02
0x4048c8 2 0.02
0x4048d0 2 0.02
0x4048d8 2 0.02
0x4048e0 2 0.02
0x4048e8 2 0.02
0x4048f0 2 0.02
0x4048f8 2 0.02
0x404900 2 0.02
0x404908 2 0.02
0x404910 2 0.02
0x404918 2 0.02
0x404920 2 0.02
0x404928 2 0.02
0x404930 2 0.02
0x404938 2 0.02
0x404940 2 0.02
0x404948 2 0.02
0x404950 2 0.02
0x404958 2 0.02
0x404960 2 0.02
0x404968 2 0.02
0x404970 2 0.02
0x404b28 2 0.02
0x404b30 2 0.02
0x404b38 1 0.01
0x404b40 1 0.01
0x404b48 1 0.01
0x404b50 1 0.01
0x404b58 1 0.01
0x404b60 1 0.01
0x404b68 1 0.01
0x404bd0 2 0.02
0x404bd8 2 0.02
0x404be0 2 0.02
0x404be8 2 0.02
0x404c20 2 0.02
0x404c28 2 0.02
0x404c30 2 0.02
0x404c38 2 0.02
0x404c40 2 0.02
0x404c48 2 0.02
0x404c50 2 0.02
0x404c58 2 0.02
0x404c60 2 0.02
0x404c68 2 0.02
0x404c70 2 0.02
0x404f70 2 0.02
0x404f78 2 0.02
0x404f80 2 0.02
0x404f88 2 0.02
0x404f90 2 0.02
0x404f98 2 0.02
0x404fa0 2 0.02
0x404fa8 2 0.02
0x404fb0 2 0.02
0x404fc8 2 0.02
0x404fd0 2 0.02
0x404fd8 2 0.02
0x404fe0 2 0.02
0x404fe8 2 0.02
0x404ff0 2 0.02
0x404ff8 2 0.02
0x405000 2 0.02
0x405008 2 0.02
0x405010 2 0.02
0x405018 2 0.02
0x4054b0 2 0.02
0x4054b8 2 0.02
0x4054c0 2 0.02
0x4054c8 2 0.02
0x4054d0 2 0.02
0x4054d8 2 0.02
0x4054e0 2 0.02
0x4054e8 2 0.02
0x4054f0 2 0.02
0x4054f8 2 0.02
0x405500 2 0.02
0x405508 2 0.02
0x405510 2 0.02
0x405518 2 0.02
0x405520 2 0.02
0x405538 2 0.02
0x405540 2 0.02
0x405548 2 0.02
0x405550 2 0.02
0x405558 2 0.02
0x405560 2 0.02
0x405568 2 0.02
0x405590 2 0.02
0x405598 2 0.02
0x4055a0 2 0.02
0x4055a8 2 0.02
0x4055b0 2 0.02
0x4055e8 2 0.02
0x4055f0 2 0.02
0x4055f8 2 0.02
0x405600 2 0.02
0x405608 2 0.02
0x405610 2 0.02
0x405618 2 0.02
0x405620 2 0.02
0x405628 2 0.02
0x405630 2 0.02
0x405638 2 0.02
0x405640 2 0.02
0x405648 2 0.02
0x405650 2 0.02
0x405658 2 0.02
0x405660 2 0.02
0x405668 2 0.02
0x405670 2 0.02
0x405678 2 0.02
0x405680 2 0.02
0x405688 2 0.02
0x405690 2 0.02
0x405698 2 0.02
0x4056a0 2 0.02
0x4056a8 2 0.02
0x4056b0 2 0.02
0x4056b8 2 0.02
0x4056c0 2 0.02
0x4056c8 2 0.02
0x4056d0 2 0.02
0x4056d8 1 0.01
0x4056e0 1 0.01
0x4056f8 1 0.01
0x405700 1 0.01
0x405708 1 0.01
0x405710 1 0.01
0x405718 1 0.01
0x405720 1 0.01
0x405728 1 0.01
0x405760 1 0.01
0x405768 1 0.01
0x405770 1 0.01
0x405798 2 0.02
0x4057a0 2 0.02
0x4057a8 2 0.02
0x4057b0 2 0.02
0x4057b8 2 0.02
0x4057c0 2 0.02
0x4057c8 2 0.02
0x4057d0 2 0.02
0x4057d8 2 0.02
0x405808 2 0.02
0x4058d0 2 0.02
0x4058d8 2 0.02
0x4058e0 2 0.02
0x405908 2 0.02
0x405910 2 0.02
0x405920 2 0.02
0x405928 2 0.02
0x405930 2 0.02
0x405938 2 0.02
0x405940 2 0.02
0x405948 2 0.02
0x405978 2 0.02
0x405980 2 0.02
0x405988 2 0.02
0x405990 2 0.02
0x4059a8 2 0.02
0x4059b0 2 0.02
0x4059b8 2 0.02
0x4059c0 2 0.02
0x4059c8 2 0.02
0x4059d0 2 0.02
0x4059d8 2 0.02
0x4059e0 2 0.02
0x405f78 3 0.03
0x405f80 3 0.03
0x405f88 3 0.03
0x405f90 3 0.03
0x405f98 3 0.03
0x405fa0 3 0.03
0x405fa8 3 0.03
0x405fb0 3 0.03
0x405fb8 3 0.03
0x405fc0 3 0.03
0x405fc8 3 0.03
0x405fd0 3 0.03
0x405fd8 3 0.03
0x405fe0 3 0.03
0x405fe8 3 0.03
0x406190 2 0.02
0x406198 2 0.02
0x4061a0 2 0.02
0x4061a8 2 0.02
0x4061b0 2 0.02
0x4061b8 2 0.02
0x406630 3 0.03
0x406638 3 0.03
0x406640 3 0.03
0x406648 3 0.03
0x406660 3 0.03
0x406668 3 0.03
0x406670 3 0.03
0x406678 3 0.03
0x406680 3 0.03
0x406688 3 0.03
0x406690 3 0.03
0x406698 3 0.03
0x4066a0 3 0.03
0x4066a8 3 0.03
0x4066b0 3 0.03
0x406f10 2 0.02
0x406f18 2 0.02
0x406f20 2 0.02
0x406f28 2 0.02
0x406f30 2 0.02
0x406f38 2 0.02
0x406f40 2 0.02
0x406f48 2 0.02
0x406f50 2 0.02
0x406f58 2 0.02
0x406f60 2 0.02
0x406f68 1 0.01
0x406f70 1 0.01
0x406f78 1 0.01
0x406f80 1 0.01
0x406f88 1 0.01
0x406f90 1 0.01
0x406f98 1 0.01
0x406fa0 1 0.01
0x406fc8 1 0.01
0x406fd0 1 0.01
0x407010 1 0.01
0x407018 1 0.01
0x407020 2 0.02
0x407028 2 0.02
0x407030 2 0.02
0x407038 2 0.02
0x407040 2 0.02
0x407120 2 0.02
0x407128 2 0.02
0x407130 2 0.02
0x407138 2 0.02
0x407140 2 0.02
0x4071d0 3 0.03
0x4071d8 3 0.03
0x4071e0 3 0.03
0x4071f0 3 0.03
0x4071f8 3 0.03
0x407200 3 0.03
0x407208 3 0.03
0x407210 3 0.03
0x407218 3 0.03
0x407240 1 0.01
0x407248 1 0.01
0x407250 1 0.01
0x407258 1 0.01
0x407260 1 0.01
sim_num_insn_by_pc.end_dist

ld_text_base             0x00400000 # program text (code) segment base
ld_text_size                  29600 # program text (code) size in bytes
ld_data_base             0x10000000 # program initialized data segment base
ld_data_size                   4096 # program init'ed `.data' and uninit'ed `.bss' size in bytes
ld_stack_base            0x7fffc000 # program stack segment base (highest address in stack)
ld_stack_size                 16384 # program initial stack size
ld_prog_entry            0x00400140 # program entry point (initial PC)
ld_environ_base          0x7fff8000 # program environment base address address
ld_target_big_endian              0 # target executable endian-ness, non-zero if big endian
mem.page_count                   14 # total number of pages allocated
mem.page_mem                    56k # total size of memory pages allocated
mem.ptab_misses                  14 # total first level page table misses
mem.ptab_accesses            238080 # total page table accesses
mem.ptab_miss_rate           0.0001 # first level page table miss rate

+--------------------------------------------------------------+
| effective code range:         [0, fffffff8]                  |
| effective bpred count:        0                              |
| effective sim cycles:         0                              |
| effective bpred misses:       0                              |
| effective icache misses:      0                              |
+--------------------------------------------------------------+

