sim-profile: SimpleScalar/PISA Tool Set version 3.0 of August, 2003.
Copyright (c) 1994-2003 by Todd M. Austin, Ph.D. and SimpleScalar, LLC.
All Rights Reserved. This version of SimpleScalar is licensed for academic
non-commercial use.  No portion of this work may be used by any commercial
entity, or for any commercial purpose, without the prior written permission
of SimpleScalar, LLC (info@simplescalar.com).

sim: command line: /home/sudiptac/sudiptac/Work/simplesim-3.0/sim-profile -pcstat sim_num_insn mergesort_org 

sim: simulation started @ Thu Mar 18 00:45:50 2010, options follow:

sim-profile: This simulator implements a functional simulator with
profiling support.  Run with the `-h' flag to see profiling options
available.

# -config                     # load configuration from a file
# -dumpconfig                 # dump configuration to a file
# -h                    false # print help message    
# -v                    false # verbose operation     
# -d                    false # enable debug message  
# -i                    false # start in Dlite debugger
-seed                       1 # random number generator seed (0 for timer seed)
# -q                    false # initialize and terminate immediately
# -chkpt               <null> # restore EIO trace execution from <fname>
# -redir:sim           <null> # redirect simulator output to file (non-interactive only)
# -redir:prog          <null> # redirect simulated program output to file
-nice                       0 # simulator scheduling priority
-max:inst                   0 # maximum number of inst's to execute
-all                    false # enable all profile options
-iclass                 false # enable instruction class profiling
-iprof                  false # enable instruction profiling
-brprof                 false # enable branch instruction profiling
-amprof                 false # enable address mode profiling
-segprof                false # enable load/store address segment profiling
-tsymprof               false # enable text symbol profiling
-taddrprof              false # enable text address profiling
-dsymprof               false # enable data symbol profiling
-internal               false # include compiler-internal symbols during symbol profiling
# -pcstat        sim_num_insn # profile stat(s) against text addr's (mult uses ok)

sim: ** starting functional simulation **

sim: ** simulation statistics **
sim_num_insn               10950524 # total number of instructions executed
sim_num_refs                2371082 # total number of loads and stores executed
sim_elapsed_time                  1 # total simulation time in seconds
sim_inst_rate          10950524.0000 # simulation speed (in insts/sec)

sim_num_insn_by_pc     # total number of instructions executed (by text address)
sim_num_insn_by_pc.count = 892
sim_num_insn_by_pc.total = 10950523
sim_num_insn_by_pc.imin = 0x400140
sim_num_insn_by_pc.imax = 0x4059a0
sim_num_insn_by_pc.average = 12276.3711
sim_num_insn_by_pc.std_dev = 60697.1690
sim_num_insn_by_pc.overflows = 0
# pdf == prob dist fn, cdf == cumulative dist fn
#          index      count    pdf 
sim_num_insn_by_pc.start_dist
0x400140 1 0.00
0x400148 1 0.00
0x400150 1 0.00
0x400158 1 0.00
0x400160 1 0.00
0x400168 1 0.00
0x400170 1 0.00
0x400178 1 0.00
0x400180 1 0.00
0x400188 1 0.00
0x400190 1 0.00
0x400198 1 0.00
0x4001a0 1 0.00
0x4001a8 1 0.00
0x4001b0 1 0.00
0x4001b8 1 0.00
0x4001c0 1 0.00
0x4001c8 1 0.00
0x4001d0 1 0.00
0x4001d8 1 0.00
0x4001e0 1 0.00
0x4001f0 1 0.00
0x4001f8 1 0.00
0x400200 1 0.00
0x400208 1 0.00
0x400210 1 0.00
0x400218 1 0.00
0x400220 1 0.00
0x400228 1 0.00
0x400230 1 0.00
0x400238 15 0.00
0x400240 15 0.00
0x400248 32767 0.30
0x400250 32767 0.30
0x400258 32767 0.30
0x400260 32767 0.30
0x400268 32767 0.30
0x400270 32767 0.30
0x400278 32767 0.30
0x400280 32767 0.30
0x400288 32767 0.30
0x400290 32767 0.30
0x400298 32767 0.30
0x4002a0 32767 0.30
0x4002a8 32767 0.30
0x4002b0 32767 0.30
0x4002b8 32767 0.30
0x4002c0 32767 0.30
0x4002c8 32767 0.30
0x4002d0 32767 0.30
0x4002d8 32767 0.30
0x4002e0 32767 0.30
0x4002e8 32767 0.30
0x4002f0 385023 3.52
0x4002f8 385023 3.52
0x400300 368639 3.37
0x400308 368639 3.37
0x400310 368639 3.37
0x400318 368639 3.37
0x400320 184319 1.68
0x400328 184319 1.68
0x400330 184319 1.68
0x400338 184319 1.68
0x400340 184320 1.68
0x400348 184320 1.68
0x400350 184320 1.68
0x400358 368639 3.37
0x400360 368639 3.37
0x400368 368639 3.37
0x400370 368639 3.37
0x400378 32767 0.30
0x400380 32767 0.30
0x400388 16384 0.15
0x400390 16384 0.15
0x400398 16384 0.15
0x4003a0 16384 0.15
0x4003a8 61441 0.56
0x4003b0 61441 0.56
0x4003b8 61441 0.56
0x4003c0 61441 0.56
0x4003c8 61441 0.56
0x4003d0 61441 0.56
0x4003d8 61441 0.56
0x4003e0 61441 0.56
0x4003e8 32767 0.30
0x4003f0 32767 0.30
0x4003f8 16383 0.15
0x400400 16383 0.15
0x400408 16383 0.15
0x400410 16383 0.15
0x400418 61440 0.56
0x400420 61440 0.56
0x400428 61440 0.56
0x400430 61440 0.56
0x400438 61440 0.56
0x400440 61440 0.56
0x400448 61440 0.56
0x400450 32767 0.30
0x400458 32767 0.30
0x400460 32767 0.30
0x400468 32767 0.30
0x400470 32767 0.30
0x400478 32767 0.30
0x400480 491520 4.49
0x400488 491520 4.49
0x400490 491520 4.49
0x400498 491520 4.49
0x4004a0 491520 4.49
0x4004a8 491520 4.49
0x4004b0 491520 4.49
0x4004b8 32767 0.30
0x4004c0 32767 0.30
0x4004c8 32767 0.30
0x4004d0 32767 0.30
0x4004d8 15 0.00
0x4004e0 15 0.00
0x4004e8 15 0.00
0x4004f0 1 0.00
0x4004f8 1 0.00
0x400500 1 0.00
0x400508 1 0.00
0x400510 1 0.00
0x400518 1 0.00
0x400520 1 0.00
0x400528 1 0.00
0x400530 1 0.00
0x400538 1 0.00
0x400540 1 0.00
0x400548 32768 0.30
0x400550 32768 0.30
0x400558 16384 0.15
0x400560 16384 0.15
0x400568 16384 0.15
0x400570 16384 0.15
0x400578 16384 0.15
0x400580 16384 0.15
0x400588 32768 0.30
0x400590 32768 0.30
0x400598 32768 0.30
0x4005a0 32768 0.30
0x4005a8 1 0.00
0x4005b0 1 0.00
0x4005b8 1 0.00
0x4005c0 1 0.00
0x4005c8 1 0.00
0x4005d0 1 0.00
0x4005e0 1 0.00
0x4005e8 1 0.00
0x4005f0 1 0.00
0x4005f8 1 0.00
0x400600 1 0.00
0x400608 1 0.00
0x400610 1 0.00
0x400618 1 0.00
0x400620 1 0.00
0x400628 1 0.00
0x400630 1 0.00
0x400638 1 0.00
0x400640 1 0.00
0x400648 1 0.00
0x400650 1 0.00
0x400658 1 0.00
0x400660 1 0.00
0x400668 1 0.00
0x400670 1 0.00
0x400678 1 0.00
0x400680 1 0.00
0x400688 1 0.00
0x400690 1 0.00
0x400740 1 0.00
0x400748 1 0.00
0x400750 1 0.00
0x400758 1 0.00
0x400760 1 0.00
0x4007b0 1 0.00
0x4007b8 1 0.00
0x4007c0 1 0.00
0x4007c8 1 0.00
0x4007d0 1 0.00
0x4007d8 1 0.00
0x4007e0 1 0.00
0x4007e8 1 0.00
0x4007f0 1 0.00
0x4007f8 1 0.00
0x400800 1 0.00
0x400808 1 0.00
0x400818 1 0.00
0x400820 1 0.00
0x400828 1 0.00
0x400830 1 0.00
0x400838 1 0.00
0x400a50 1 0.00
0x400a58 1 0.00
0x400a60 1 0.00
0x400a68 1 0.00
0x400a70 1 0.00
0x400a78 1 0.00
0x400a80 1 0.00
0x400aa0 1 0.00
0x400ac0 1 0.00
0x400ac8 1 0.00
0x400ad0 1 0.00
0x400ad8 1 0.00
0x400ae0 1 0.00
0x400ae8 1 0.00
0x400b08 1 0.00
0x400b10 1 0.00
0x400b18 1 0.00
0x400b20 1 0.00
0x400b40 1 0.00
0x400b48 1 0.00
0x400b50 1 0.00
0x400b58 1 0.00
0x400b60 1 0.00
0x400b68 1 0.00
0x400b70 1 0.00
0x400b78 1 0.00
0x400b80 1 0.00
0x400b88 1 0.00
0x400b90 1 0.00
0x400b98 1 0.00
0x400ba0 1 0.00
0x400ba8 1 0.00
0x400bb0 1 0.00
0x400bb8 1 0.00
0x400bc0 1 0.00
0x400bc8 1 0.00
0x400bd0 1 0.00
0x400bd8 1 0.00
0x400be0 1 0.00
0x400be8 1 0.00
0x400bf0 1 0.00
0x400bf8 1 0.00
0x400c08 1 0.00
0x400c10 1 0.00
0x400c18 1 0.00
0x400c20 1 0.00
0x400c28 1 0.00
0x400c30 1 0.00
0x400c38 1 0.00
0x400c40 1 0.00
0x400c48 1 0.00
0x400c50 1 0.00
0x400c58 1 0.00
0x400c60 1 0.00
0x400c68 1 0.00
0x400c70 1 0.00
0x400c78 1 0.00
0x400c80 1 0.00
0x400c88 1 0.00
0x400c90 1 0.00
0x400c98 1 0.00
0x400ca0 1 0.00
0x400ca8 1 0.00
0x400cb0 1 0.00
0x400cb8 1 0.00
0x400cc0 1 0.00
0x400cc8 1 0.00
0x400cd8 1 0.00
0x400ce0 1 0.00
0x400ce8 1 0.00
0x400cf0 1 0.00
0x400cf8 1 0.00
0x400d00 1 0.00
0x400d08 1 0.00
0x400d10 1 0.00
0x400d18 1 0.00
0x400d20 1 0.00
0x400d28 1 0.00
0x400d30 1 0.00
0x400d38 1 0.00
0x400d40 1 0.00
0x400d48 1 0.00
0x400d50 1 0.00
0x400d58 1 0.00
0x400d88 1 0.00
0x400d90 1 0.00
0x400da0 1 0.00
0x400da8 1 0.00
0x400dc0 1 0.00
0x400dc8 1 0.00
0x400dd0 1 0.00
0x400dd8 1 0.00
0x400de8 1 0.00
0x400df0 1 0.00
0x400df8 1 0.00
0x400e00 1 0.00
0x400e08 1 0.00
0x401090 1 0.00
0x401098 1 0.00
0x4010a0 1 0.00
0x4010a8 1 0.00
0x4010b8 1 0.00
0x4010c0 1 0.00
0x4010c8 1 0.00
0x4010d0 1 0.00
0x4010d8 1 0.00
0x4010e0 1 0.00
0x4010e8 1 0.00
0x4010f0 1 0.00
0x4010f8 1 0.00
0x401100 1 0.00
0x401108 1 0.00
0x401110 1 0.00
0x401118 1 0.00
0x401120 1 0.00
0x401128 1 0.00
0x401130 1 0.00
0x401138 1 0.00
0x401140 1 0.00
0x401148 1 0.00
0x401150 1 0.00
0x401158 1 0.00
0x401160 1 0.00
0x401178 1 0.00
0x401180 1 0.00
0x401188 1 0.00
0x401190 1 0.00
0x401198 1 0.00
0x4011a0 1 0.00
0x4011b0 1 0.00
0x4011b8 1 0.00
0x401550 1 0.00
0x401558 1 0.00
0x401560 1 0.00
0x401568 1 0.00
0x401570 1 0.00
0x401578 1 0.00
0x401580 1 0.00
0x401588 1 0.00
0x401590 1 0.00
0x401598 1 0.00
0x4015a0 1 0.00
0x4015a8 1 0.00
0x4015b0 1 0.00
0x4015b8 1 0.00
0x4015c0 1 0.00
0x4015c8 1 0.00
0x4015d0 1 0.00
0x4015d8 1 0.00
0x4015e0 1 0.00
0x4015e8 1 0.00
0x4015f0 1 0.00
0x4015f8 1 0.00
0x401600 1 0.00
0x401608 1 0.00
0x401610 1 0.00
0x401618 1 0.00
0x401700 1 0.00
0x401708 1 0.00
0x401710 1 0.00
0x401718 1 0.00
0x401720 1 0.00
0x401728 1 0.00
0x401730 1 0.00
0x401740 1 0.00
0x401748 1 0.00
0x401750 1 0.00
0x401758 1 0.00
0x401760 1 0.00
0x401768 1 0.00
0x401770 1 0.00
0x401778 1 0.00
0x401780 1 0.00
0x401788 1 0.00
0x401790 1 0.00
0x401798 1 0.00
0x4017a0 1 0.00
0x4017a8 1 0.00
0x4017b0 1 0.00
0x4017b8 1 0.00
0x4017c0 1 0.00
0x401a58 1 0.00
0x401a60 1 0.00
0x401a68 1 0.00
0x401a70 1 0.00
0x401a78 1 0.00
0x401a80 1 0.00
0x401a88 1 0.00
0x401a90 1 0.00
0x401aa0 4 0.00
0x401aa8 4 0.00
0x401ab0 4 0.00
0x401ab8 4 0.00
0x401ac0 4 0.00
0x401ac8 4 0.00
0x401ad0 4 0.00
0x401ad8 1 0.00
0x401ae0 1 0.00
0x401ae8 1 0.00
0x401af0 1 0.00
0x401af8 1 0.00
0x401b00 1 0.00
0x401b08 3 0.00
0x401b10 3 0.00
0x401b28 3 0.00
0x401b30 3 0.00
0x401b38 3 0.00
0x401b40 3 0.00
0x401b48 3 0.00
0x401b50 3 0.00
0x401b58 1 0.00
0x401b60 1 0.00
0x401b68 3 0.00
0x401b70 3 0.00
0x401b78 3 0.00
0x401b80 3 0.00
0x401b98 3 0.00
0x401ba0 3 0.00
0x401ba8 3 0.00
0x401bb0 3 0.00
0x401bd8 3 0.00
0x401be0 3 0.00
0x401be8 3 0.00
0x401bf0 2 0.00
0x401bf8 2 0.00
0x401c00 2 0.00
0x401c08 2 0.00
0x401c10 2 0.00
0x401c28 3 0.00
0x401c30 3 0.00
0x401c38 1 0.00
0x401c40 1 0.00
0x401c48 1 0.00
0x401c50 1 0.00
0x401c58 3 0.00
0x401c60 3 0.00
0x401c68 2 0.00
0x401c70 2 0.00
0x401c78 2 0.00
0x401c80 2 0.00
0x401c88 1 0.00
0x401c90 1 0.00
0x401c98 1 0.00
0x401ca0 1 0.00
0x401ca8 1 0.00
0x401cc8 1 0.00
0x401cd0 3 0.00
0x401cd8 3 0.00
0x401ce0 3 0.00
0x401ce8 4 0.00
0x401cf0 4 0.00
0x401cf8 4 0.00
0x401d00 4 0.00
0x401d08 4 0.00
0x401d10 4 0.00
0x401d40 1 0.00
0x401d48 1 0.00
0x401d50 1 0.00
0x401d58 1 0.00
0x401d90 1 0.00
0x401d98 1 0.00
0x401da0 1 0.00
0x401da8 1 0.00
0x401db0 1 0.00
0x401db8 1 0.00
0x401dc0 4 0.00
0x401dc8 4 0.00
0x401dd0 4 0.00
0x401dd8 4 0.00
0x401de0 4 0.00
0x401de8 4 0.00
0x401df0 4 0.00
0x401df8 4 0.00
0x401e00 3 0.00
0x401e08 3 0.00
0x401e10 3 0.00
0x401e18 3 0.00
0x401e20 3 0.00
0x401e28 3 0.00
0x401e30 1 0.00
0x401e38 1 0.00
0x401e40 1 0.00
0x401e48 1 0.00
0x401e50 1 0.00
0x401e58 1 0.00
0x401e60 1 0.00
0x401e68 1 0.00
0x401ec8 1 0.00
0x401ed0 1 0.00
0x401ed8 1 0.00
0x401ee0 3 0.00
0x401ee8 3 0.00
0x401ef0 3 0.00
0x401ef8 3 0.00
0x401f00 3 0.00
0x401f08 3 0.00
0x401f10 3 0.00
0x401f18 3 0.00
0x401f20 3 0.00
0x401f28 3 0.00
0x401f30 4 0.00
0x401f38 4 0.00
0x401f40 4 0.00
0x401f48 4 0.00
0x401f50 4 0.00
0x401f58 4 0.00
0x401f60 4 0.00
0x401f68 4 0.00
0x401f70 4 0.00
0x401f78 4 0.00
0x401fa8 4 0.00
0x401fb0 4 0.00
0x401fb8 4 0.00
0x401fc0 390 0.00
0x401fc8 390 0.00
0x401fd0 390 0.00
0x401fd8 390 0.00
0x401fe0 390 0.00
0x401fe8 390 0.00
0x401ff0 390 0.00
0x401ff8 390 0.00
0x402000 390 0.00
0x402008 390 0.00
0x402010 390 0.00
0x402018 390 0.00
0x402020 4 0.00
0x402028 4 0.00
0x402030 4 0.00
0x402038 12 0.00
0x402040 12 0.00
0x402048 12 0.00
0x402050 12 0.00
0x402058 4 0.00
0x402060 4 0.00
0x402088 4 0.00
0x402090 4 0.00
0x402260 1 0.00
0x402268 1 0.00
0x402270 1 0.00
0x402278 1 0.00
0x402280 1 0.00
0x402288 1 0.00
0x402290 1 0.00
0x402298 1 0.00
0x4022a0 1 0.00
0x4022a8 1 0.00
0x4022b8 1 0.00
0x4022c0 1 0.00
0x4022c8 1 0.00
0x4022d0 1 0.00
0x4022d8 1 0.00
0x4022e0 1 0.00
0x4022e8 1 0.00
0x4022f0 1 0.00
0x4022f8 1 0.00
0x402300 1 0.00
0x402308 1 0.00
0x402310 1 0.00
0x402318 1 0.00
0x402320 1 0.00
0x402328 1 0.00
0x402330 1 0.00
0x402338 1 0.00
0x402340 1 0.00
0x402348 1 0.00
0x402350 1 0.00
0x402358 1 0.00
0x402360 1 0.00
0x402368 1 0.00
0x402370 1 0.00
0x402378 1 0.00
0x4023c8 1 0.00
0x4023d0 1 0.00
0x4023d8 1 0.00
0x4023e0 1 0.00
0x4023e8 1 0.00
0x4023f0 1 0.00
0x4023f8 1 0.00
0x402410 1 0.00
0x402418 1 0.00
0x402420 1 0.00
0x402428 1 0.00
0x402430 1 0.00
0x402438 1 0.00
0x402440 1 0.00
0x402448 1 0.00
0x402450 1 0.00
0x402458 1 0.00
0x402460 1 0.00
0x402468 1 0.00
0x402470 1 0.00
0x4024c0 1 0.00
0x4024c8 1 0.00
0x4024d0 1 0.00
0x4024d8 1 0.00
0x4024e0 1 0.00
0x4024e8 1 0.00
0x4024f0 1 0.00
0x4024f8 1 0.00
0x402500 1 0.00
0x402508 1 0.00
0x402510 1 0.00
0x402518 1 0.00
0x402520 1 0.00
0x402528 1 0.00
0x402530 1 0.00
0x402538 1 0.00
0x402540 1 0.00
0x402548 1 0.00
0x402550 1 0.00
0x402558 1 0.00
0x402560 1 0.00
0x402568 1 0.00
0x402570 1 0.00
0x402578 1 0.00
0x402580 1 0.00
0x402588 1 0.00
0x402590 1 0.00
0x402598 1 0.00
0x402650 1 0.00
0x402658 1 0.00
0x402660 1 0.00
0x402668 1 0.00
0x402670 1 0.00
0x4027c0 1 0.00
0x4027c8 1 0.00
0x402ad8 1 0.00
0x402ae0 1 0.00
0x402ae8 1 0.00
0x402af0 1 0.00
0x402af8 1 0.00
0x402b00 1 0.00
0x402b08 1 0.00
0x402b10 1 0.00
0x402b18 1 0.00
0x402b20 1 0.00
0x402b28 1 0.00
0x402b30 1 0.00
0x402b58 1 0.00
0x402b60 1 0.00
0x402b90 1 0.00
0x402b98 1 0.00
0x402ba0 1 0.00
0x402ba8 1 0.00
0x402fd8 2 0.00
0x402fe0 2 0.00
0x402fe8 2 0.00
0x402ff0 2 0.00
0x402ff8 2 0.00
0x403000 2 0.00
0x403008 2 0.00
0x403010 2 0.00
0x403018 2 0.00
0x403020 2 0.00
0x403028 2 0.00
0x403030 2 0.00
0x403038 2 0.00
0x403040 2 0.00
0x403048 2 0.00
0x403050 2 0.00
0x403058 2 0.00
0x403060 2 0.00
0x403068 2 0.00
0x403070 2 0.00
0x403078 2 0.00
0x403080 2 0.00
0x403088 2 0.00
0x403090 2 0.00
0x403098 2 0.00
0x4030a0 2 0.00
0x4030a8 2 0.00
0x4030b0 2 0.00
0x403268 2 0.00
0x403270 2 0.00
0x403278 1 0.00
0x403280 1 0.00
0x403288 1 0.00
0x403290 1 0.00
0x403298 1 0.00
0x4032a0 1 0.00
0x4032a8 1 0.00
0x403310 2 0.00
0x403318 2 0.00
0x403320 2 0.00
0x403328 2 0.00
0x403360 2 0.00
0x403368 2 0.00
0x403370 2 0.00
0x403378 2 0.00
0x403380 2 0.00
0x403388 2 0.00
0x403390 2 0.00
0x403398 2 0.00
0x4033a0 2 0.00
0x4033a8 2 0.00
0x4033b0 2 0.00
0x4036b0 2 0.00
0x4036b8 2 0.00
0x4036c0 2 0.00
0x4036c8 2 0.00
0x4036d0 2 0.00
0x4036d8 2 0.00
0x4036e0 2 0.00
0x4036e8 2 0.00
0x4036f0 2 0.00
0x403708 2 0.00
0x403710 2 0.00
0x403718 2 0.00
0x403720 2 0.00
0x403728 2 0.00
0x403730 2 0.00
0x403738 2 0.00
0x403740 2 0.00
0x403748 2 0.00
0x403750 2 0.00
0x403758 2 0.00
0x403bf0 2 0.00
0x403bf8 2 0.00
0x403c00 2 0.00
0x403c08 2 0.00
0x403c10 2 0.00
0x403c18 2 0.00
0x403c20 2 0.00
0x403c28 2 0.00
0x403c30 2 0.00
0x403c38 2 0.00
0x403c40 2 0.00
0x403c48 2 0.00
0x403c50 2 0.00
0x403c58 2 0.00
0x403c60 2 0.00
0x403c78 2 0.00
0x403c80 2 0.00
0x403c88 2 0.00
0x403c90 2 0.00
0x403c98 2 0.00
0x403ca0 2 0.00
0x403ca8 2 0.00
0x403cd0 2 0.00
0x403cd8 2 0.00
0x403ce0 2 0.00
0x403ce8 2 0.00
0x403cf0 2 0.00
0x403d28 2 0.00
0x403d30 2 0.00
0x403d38 2 0.00
0x403d40 2 0.00
0x403d48 2 0.00
0x403d50 2 0.00
0x403d58 2 0.00
0x403d60 2 0.00
0x403d68 2 0.00
0x403d70 2 0.00
0x403d78 2 0.00
0x403d80 2 0.00
0x403d88 2 0.00
0x403d90 2 0.00
0x403d98 2 0.00
0x403da0 2 0.00
0x403da8 2 0.00
0x403db0 2 0.00
0x403db8 2 0.00
0x403dc0 2 0.00
0x403dc8 2 0.00
0x403dd0 2 0.00
0x403dd8 2 0.00
0x403de0 2 0.00
0x403de8 2 0.00
0x403df0 2 0.00
0x403df8 2 0.00
0x403e00 2 0.00
0x403e08 2 0.00
0x403e10 2 0.00
0x403e18 1 0.00
0x403e20 1 0.00
0x403e38 1 0.00
0x403e40 1 0.00
0x403e48 1 0.00
0x403e50 1 0.00
0x403e58 1 0.00
0x403e60 1 0.00
0x403e68 1 0.00
0x403ea0 1 0.00
0x403ea8 1 0.00
0x403eb0 1 0.00
0x403ed8 2 0.00
0x403ee0 2 0.00
0x403ee8 2 0.00
0x403ef0 2 0.00
0x403ef8 2 0.00
0x403f00 2 0.00
0x403f08 2 0.00
0x403f10 2 0.00
0x403f18 2 0.00
0x403f48 2 0.00
0x404010 2 0.00
0x404018 2 0.00
0x404020 2 0.00
0x404048 2 0.00
0x404050 2 0.00
0x404060 2 0.00
0x404068 2 0.00
0x404070 2 0.00
0x404078 2 0.00
0x404080 2 0.00
0x404088 2 0.00
0x4040b8 2 0.00
0x4040c0 2 0.00
0x4040c8 2 0.00
0x4040d0 2 0.00
0x4040e8 2 0.00
0x4040f0 2 0.00
0x4040f8 2 0.00
0x404100 2 0.00
0x404108 2 0.00
0x404110 2 0.00
0x404118 2 0.00
0x404120 2 0.00
0x4046b8 3 0.00
0x4046c0 3 0.00
0x4046c8 3 0.00
0x4046d0 3 0.00
0x4046d8 3 0.00
0x4046e0 3 0.00
0x4046e8 3 0.00
0x4046f0 3 0.00
0x4046f8 3 0.00
0x404700 3 0.00
0x404708 3 0.00
0x404710 3 0.00
0x404718 3 0.00
0x404720 3 0.00
0x404728 3 0.00
0x4048d0 2 0.00
0x4048d8 2 0.00
0x4048e0 2 0.00
0x4048e8 2 0.00
0x4048f0 2 0.00
0x4048f8 2 0.00
0x404d70 3 0.00
0x404d78 3 0.00
0x404d80 3 0.00
0x404d88 3 0.00
0x404da0 3 0.00
0x404da8 3 0.00
0x404db0 3 0.00
0x404db8 3 0.00
0x404dc0 3 0.00
0x404dc8 3 0.00
0x404dd0 3 0.00
0x404dd8 3 0.00
0x404de0 3 0.00
0x404de8 3 0.00
0x404df0 3 0.00
0x405650 2 0.00
0x405658 2 0.00
0x405660 2 0.00
0x405668 2 0.00
0x405670 2 0.00
0x405678 2 0.00
0x405680 2 0.00
0x405688 2 0.00
0x405690 2 0.00
0x405698 2 0.00
0x4056a0 2 0.00
0x4056a8 1 0.00
0x4056b0 1 0.00
0x4056b8 1 0.00
0x4056c0 1 0.00
0x4056c8 1 0.00
0x4056d0 1 0.00
0x4056d8 1 0.00
0x4056e0 1 0.00
0x405708 1 0.00
0x405710 1 0.00
0x405750 1 0.00
0x405758 1 0.00
0x405760 2 0.00
0x405768 2 0.00
0x405770 2 0.00
0x405778 2 0.00
0x405780 2 0.00
0x405860 2 0.00
0x405868 2 0.00
0x405870 2 0.00
0x405878 2 0.00
0x405880 2 0.00
0x405910 3 0.00
0x405918 3 0.00
0x405920 3 0.00
0x405930 3 0.00
0x405938 3 0.00
0x405940 3 0.00
0x405948 3 0.00
0x405950 3 0.00
0x405958 3 0.00
0x405980 1 0.00
0x405988 1 0.00
0x405990 1 0.00
0x405998 1 0.00
0x4059a0 1 0.00
sim_num_insn_by_pc.end_dist

ld_text_base             0x00400000 # program text (code) segment base
ld_text_size                  23264 # program text (code) size in bytes
ld_data_base             0x10000000 # program initialized data segment base
ld_data_size                 263184 # program init'ed `.data' and uninit'ed `.bss' size in bytes
ld_stack_base            0x7fffc000 # program stack segment base (highest address in stack)
ld_stack_size                 16384 # program initial stack size
ld_prog_entry            0x00400140 # program entry point (initial PC)
ld_environ_base          0x7fff8000 # program environment base address address
ld_target_big_endian              0 # target executable endian-ness, non-zero if big endian
mem.page_count                   76 # total number of pages allocated
mem.page_mem                   304k # total size of memory pages allocated
mem.ptab_misses                  76 # total first level page table misses
mem.ptab_accesses          48691448 # total page table accesses
mem.ptab_miss_rate           0.0000 # first level page table miss rate

+--------------------------------------------------------------+
| effective code range:         [0, fffffff8]                  |
| effective bpred count:        0                              |
| effective sim cycles:         0                              |
| effective bpred misses:       0                              |
| effective icache misses:      0                              |
+--------------------------------------------------------------+

